<?xml version="1.0" encoding="UTF-8"?>

<!-- generated on 2026-04-17T11:22:35.997080+00:00 by Eclipse SUMO netedit 1.26.0
<neteditConfiguration xmlns:xsi="http://www.w3.org/2001/XMLSchema-instance" xsi:noNamespaceSchemaLocation="http://sumo.dlr.de/xsd/neteditConfiguration.xsd">

    <input>
        <sumo-net-file value="C:\Users\ucemdc3\PycharmProjects\sumo-rl\nets\2x2grid\01.net.xml"/>
    </input>

    <output>
        <output-file value="C:\Users\ucemdc3\PycharmProjects\sumo-rl\nets\2x2grid\01.net.xml"/>
    </output>

    <processing>
        <geometry.min-radius.fix.railways value="false"/>
        <geometry.avoid-overlap value="false"/>
        <geometry.max-grade.fix value="false"/>
        <offset.disable-normalization value="true"/>
        <lefthand value="0"/>
    </processing>

    <junctions>
        <no-internal-links value="false"/>
        <no-turnarounds value="true"/>
        <junctions.corner-detail value="0"/>
        <junctions.limit-turn-speed value="-1.00"/>
        <rectangular-lane-cut value="0"/>
    </junctions>

    <pedestrian>
        <walkingareas value="0"/>
    </pedestrian>

</neteditConfiguration>
-->

<net version="1.20" avoidOverlap="0" xmlns:xsi="http://www.w3.org/2001/XMLSchema-instance" xsi:noNamespaceSchemaLocation="http://sumo.dlr.de/xsd/net_file.xsd">

    <location netOffset="-1850.00,-2900.00" convBoundary="150.00,300.00,600.00,750.00" origBoundary="1850.00,2900.00,2600.00,3650.00" projParameter="!"/>

    <edge id=":0_w0" function="walkingarea">
        <lane id=":0_w0_0" index="0" allow="pedestrian" speed="2.78" length="14.80" width="2.00" shape="150.00,593.60 150.00,591.60 150.00,608.40 150.00,606.40"/>
    </edge>
    <edge id=":1_0" function="internal">
        <lane id=":1_0_0" index="0" disallow="pedestrian" speed="13.89" length="4.75" shape="295.20,610.40 294.85,607.95 293.80,606.20 293.60,606.08"/>
    </edge>
    <edge id=":1_1" function="internal">
        <lane id=":1_1_0" index="0" disallow="pedestrian" speed="13.89" length="20.80" shape="295.20,610.40 295.20,589.60"/>
        <lane id=":1_1_1" index="1" disallow="pedestrian" speed="13.89" length="20.80" shape="298.40,610.40 298.40,589.60"/>
    </edge>
    <edge id=":1_3" function="internal">
        <lane id=":1_3_0" index="0" disallow="pedestrian" speed="13.89" length="5.01" shape="298.40,610.40 299.11,605.44"/>
    </edge>
    <edge id=":1_16" function="internal">
        <lane id=":1_16_0" index="0" disallow="pedestrian" speed="13.89" length="4.28" shape="293.60,606.08 292.05,605.15 289.60,604.80"/>
    </edge>
    <edge id=":1_17" function="internal">
        <lane id=":1_17_0" index="0" disallow="pedestrian" speed="13.89" length="14.34" shape="299.11,605.44 299.15,605.15 301.40,601.40 305.15,599.15 310.40,598.40"/>
    </edge>
    <edge id=":1_4" function="internal">
        <lane id=":1_4_0" index="0" disallow="pedestrian" speed="13.89" length="4.75" shape="310.40,604.80 307.95,605.15 306.20,606.20 306.08,606.40"/>
    </edge>
    <edge id=":1_5" function="internal">
        <lane id=":1_5_0" index="0" disallow="pedestrian" speed="13.89" length="20.80" shape="310.40,604.80 289.60,604.80"/>
        <lane id=":1_5_1" index="1" disallow="pedestrian" speed="13.89" length="20.80" shape="310.40,601.60 289.60,601.60"/>
    </edge>
    <edge id=":1_7" function="internal">
        <lane id=":1_7_0" index="0" disallow="pedestrian" speed="13.89" length="5.01" shape="310.40,601.60 305.44,600.89"/>
    </edge>
    <edge id=":1_18" function="internal">
        <lane id=":1_18_0" index="0" disallow="pedestrian" speed="13.89" length="4.28" shape="306.08,606.40 305.15,607.95 304.80,610.40"/>
    </edge>
    <edge id=":1_19" function="internal">
        <lane id=":1_19_0" index="0" disallow="pedestrian" speed="13.89" length="14.34" shape="305.44,600.89 305.15,600.85 301.40,598.60 299.15,594.85 298.40,589.60"/>
    </edge>
    <edge id=":1_8" function="internal">
        <lane id=":1_8_0" index="0" disallow="pedestrian" speed="13.89" length="4.75" shape="304.80,589.60 305.15,592.05 306.20,593.80 306.40,593.92"/>
    </edge>
    <edge id=":1_9" function="internal">
        <lane id=":1_9_0" index="0" disallow="pedestrian" speed="13.89" length="20.80" shape="304.80,589.60 304.80,610.40"/>
        <lane id=":1_9_1" index="1" disallow="pedestrian" speed="13.89" length="20.80" shape="301.60,589.60 301.60,610.40"/>
    </edge>
    <edge id=":1_11" function="internal">
        <lane id=":1_11_0" index="0" disallow="pedestrian" speed="13.89" length="5.01" shape="301.60,589.60 300.89,594.56"/>
    </edge>
    <edge id=":1_20" function="internal">
        <lane id=":1_20_0" index="0" disallow="pedestrian" speed="13.89" length="4.28" shape="306.40,593.92 307.95,594.85 310.40,595.20"/>
    </edge>
    <edge id=":1_21" function="internal">
        <lane id=":1_21_0" index="0" disallow="pedestrian" speed="13.89" length="14.34" shape="300.89,594.56 300.85,594.85 298.60,598.60 294.85,600.85 289.60,601.60"/>
    </edge>
    <edge id=":1_12" function="internal">
        <lane id=":1_12_0" index="0" disallow="pedestrian" speed="13.89" length="4.75" shape="289.60,595.20 292.05,594.85 293.80,593.80 293.92,593.60"/>
    </edge>
    <edge id=":1_13" function="internal">
        <lane id=":1_13_0" index="0" disallow="pedestrian" speed="13.89" length="20.80" shape="289.60,595.20 310.40,595.20"/>
        <lane id=":1_13_1" index="1" disallow="pedestrian" speed="13.89" length="20.80" shape="289.60,598.40 310.40,598.40"/>
    </edge>
    <edge id=":1_15" function="internal">
        <lane id=":1_15_0" index="0" disallow="pedestrian" speed="13.89" length="5.01" shape="289.60,598.40 294.56,599.11"/>
    </edge>
    <edge id=":1_22" function="internal">
        <lane id=":1_22_0" index="0" disallow="pedestrian" speed="13.89" length="4.28" shape="293.92,593.60 294.85,592.05 295.20,589.60"/>
    </edge>
    <edge id=":1_23" function="internal">
        <lane id=":1_23_0" index="0" disallow="pedestrian" speed="13.89" length="14.34" shape="294.56,599.11 294.85,599.15 298.60,601.40 300.85,605.15 301.60,610.40"/>
    </edge>
    <edge id=":1_c0" function="crossing" crossingEdges="v11 -v11">
        <lane id=":1_c0_0" index="0" allow="pedestrian" speed="2.78" length="12.80" width="4.00" shape="306.40,608.40 293.60,608.40" outlineShape="306.40,610.40 293.60,610.40 293.60,606.40 289.60,606.40 289.60,608.40 291.60,610.40 293.60,610.40 293.60,606.40 306.40,606.40"/>
    </edge>
    <edge id=":1_c1" function="crossing" crossingEdges="-h12 h12">
        <lane id=":1_c1_0" index="0" allow="pedestrian" speed="2.78" length="12.80" width="4.00" shape="308.40,593.60 308.40,606.40" outlineShape="310.40,593.60 310.40,606.40 306.40,606.40 306.40,593.60"/>
    </edge>
    <edge id=":1_c2" function="crossing" crossingEdges="-v12 v12">
        <lane id=":1_c2_0" index="0" allow="pedestrian" speed="2.78" length="12.80" width="4.00" shape="293.60,591.60 306.40,591.60" outlineShape="293.60,589.60 306.40,589.60 306.40,593.60 310.40,593.60 310.40,591.60 308.40,589.60 306.40,589.60 306.40,593.60 293.60,593.60"/>
    </edge>
    <edge id=":1_c3" function="crossing" crossingEdges="h11 -h11">
        <lane id=":1_c3_0" index="0" allow="pedestrian" speed="2.78" length="12.80" width="4.00" shape="291.60,606.40 291.60,593.60" outlineShape="289.60,606.40 289.60,593.60 293.60,593.60 293.60,606.40"/>
    </edge>
    <edge id=":1_w0" function="walkingarea">
        <lane id=":1_w0_0" index="0" allow="pedestrian" speed="2.78" length="3.30" width="4.00" shape="293.60,606.40 289.60,606.40 289.60,608.40 291.60,610.40 293.60,610.40 293.60,606.40"/>
    </edge>
    <edge id=":1_w1" function="walkingarea">
        <lane id=":1_w1_0" index="0" allow="pedestrian" speed="2.78" length="3.30" width="4.00" shape="306.40,606.40 306.40,610.40 308.40,610.40 310.40,608.40 310.40,606.40 306.40,606.40"/>
    </edge>
    <edge id=":1_w2" function="walkingarea">
        <lane id=":1_w2_0" index="0" allow="pedestrian" speed="2.78" length="3.30" width="4.00" shape="306.40,593.60 310.40,593.60 310.40,591.60 308.40,589.60 306.40,589.60 306.40,593.60"/>
    </edge>
    <edge id=":1_w3" function="walkingarea">
        <lane id=":1_w3_0" index="0" allow="pedestrian" speed="2.78" length="3.30" width="4.00" shape="293.60,593.60 293.60,589.60 291.60,589.60 289.60,591.60 289.60,593.60 293.60,593.60"/>
    </edge>
    <edge id=":10_w0" function="walkingarea">
        <lane id=":10_w0_0" index="0" allow="pedestrian" speed="2.78" length="14.80" width="2.00" shape="456.40,300.00 458.40,300.00 441.60,300.00 443.60,300.00"/>
    </edge>
    <edge id=":17_w0" function="walkingarea">
        <lane id=":17_w0_0" index="0" allow="pedestrian" speed="2.78" length="14.80" width="2.00" shape="293.60,750.00 291.60,750.00 308.40,750.00 306.40,750.00"/>
    </edge>
    <edge id=":18_w0" function="walkingarea">
        <lane id=":18_w0_0" index="0" allow="pedestrian" speed="2.78" length="14.80" width="2.00" shape="443.60,750.00 441.60,750.00 458.40,750.00 456.40,750.00"/>
    </edge>
    <edge id=":2_0" function="internal">
        <lane id=":2_0_0" index="0" disallow="pedestrian" speed="13.89" length="4.75" shape="445.20,610.40 444.85,607.95 443.80,606.20 443.60,606.08"/>
    </edge>
    <edge id=":2_1" function="internal">
        <lane id=":2_1_0" index="0" disallow="pedestrian" speed="13.89" length="20.80" shape="445.20,610.40 445.20,589.60"/>
        <lane id=":2_1_1" index="1" disallow="pedestrian" speed="13.89" length="20.80" shape="448.40,610.40 448.40,589.60"/>
    </edge>
    <edge id=":2_3" function="internal">
        <lane id=":2_3_0" index="0" disallow="pedestrian" speed="13.89" length="5.01" shape="448.40,610.40 449.11,605.44"/>
    </edge>
    <edge id=":2_16" function="internal">
        <lane id=":2_16_0" index="0" disallow="pedestrian" speed="13.89" length="4.28" shape="443.60,606.08 442.05,605.15 439.60,604.80"/>
    </edge>
    <edge id=":2_17" function="internal">
        <lane id=":2_17_0" index="0" disallow="pedestrian" speed="13.89" length="14.34" shape="449.11,605.44 449.15,605.15 451.40,601.40 455.15,599.15 460.40,598.40"/>
    </edge>
    <edge id=":2_4" function="internal">
        <lane id=":2_4_0" index="0" disallow="pedestrian" speed="13.89" length="4.75" shape="460.40,604.80 457.95,605.15 456.20,606.20 456.08,606.40"/>
    </edge>
    <edge id=":2_5" function="internal">
        <lane id=":2_5_0" index="0" disallow="pedestrian" speed="13.89" length="20.80" shape="460.40,604.80 439.60,604.80"/>
        <lane id=":2_5_1" index="1" disallow="pedestrian" speed="13.89" length="20.80" shape="460.40,601.60 439.60,601.60"/>
    </edge>
    <edge id=":2_7" function="internal">
        <lane id=":2_7_0" index="0" disallow="pedestrian" speed="13.89" length="5.01" shape="460.40,601.60 455.44,600.89"/>
    </edge>
    <edge id=":2_18" function="internal">
        <lane id=":2_18_0" index="0" disallow="pedestrian" speed="13.89" length="4.28" shape="456.08,606.40 455.15,607.95 454.80,610.40"/>
    </edge>
    <edge id=":2_19" function="internal">
        <lane id=":2_19_0" index="0" disallow="pedestrian" speed="13.89" length="14.34" shape="455.44,600.89 455.15,600.85 451.40,598.60 449.15,594.85 448.40,589.60"/>
    </edge>
    <edge id=":2_8" function="internal">
        <lane id=":2_8_0" index="0" disallow="pedestrian" speed="13.89" length="4.75" shape="454.80,589.60 455.15,592.05 456.20,593.80 456.40,593.92"/>
    </edge>
    <edge id=":2_9" function="internal">
        <lane id=":2_9_0" index="0" disallow="pedestrian" speed="13.89" length="20.80" shape="454.80,589.60 454.80,610.40"/>
        <lane id=":2_9_1" index="1" disallow="pedestrian" speed="13.89" length="20.80" shape="451.60,589.60 451.60,610.40"/>
    </edge>
    <edge id=":2_11" function="internal">
        <lane id=":2_11_0" index="0" disallow="pedestrian" speed="13.89" length="5.01" shape="451.60,589.60 450.89,594.56"/>
    </edge>
    <edge id=":2_20" function="internal">
        <lane id=":2_20_0" index="0" disallow="pedestrian" speed="13.89" length="4.28" shape="456.40,593.92 457.95,594.85 460.40,595.20"/>
    </edge>
    <edge id=":2_21" function="internal">
        <lane id=":2_21_0" index="0" disallow="pedestrian" speed="13.89" length="14.34" shape="450.89,594.56 450.85,594.85 448.60,598.60 444.85,600.85 439.60,601.60"/>
    </edge>
    <edge id=":2_12" function="internal">
        <lane id=":2_12_0" index="0" disallow="pedestrian" speed="13.89" length="4.75" shape="439.60,595.20 442.05,594.85 443.80,593.80 443.92,593.60"/>
    </edge>
    <edge id=":2_13" function="internal">
        <lane id=":2_13_0" index="0" disallow="pedestrian" speed="13.89" length="20.80" shape="439.60,595.20 460.40,595.20"/>
        <lane id=":2_13_1" index="1" disallow="pedestrian" speed="13.89" length="20.80" shape="439.60,598.40 460.40,598.40"/>
    </edge>
    <edge id=":2_15" function="internal">
        <lane id=":2_15_0" index="0" disallow="pedestrian" speed="13.89" length="5.01" shape="439.60,598.40 444.56,599.11"/>
    </edge>
    <edge id=":2_22" function="internal">
        <lane id=":2_22_0" index="0" disallow="pedestrian" speed="13.89" length="4.28" shape="443.92,593.60 444.85,592.05 445.20,589.60"/>
    </edge>
    <edge id=":2_23" function="internal">
        <lane id=":2_23_0" index="0" disallow="pedestrian" speed="13.89" length="14.34" shape="444.56,599.11 444.85,599.15 448.60,601.40 450.85,605.15 451.60,610.40"/>
    </edge>
    <edge id=":2_c0" function="crossing" crossingEdges="v21 -v21">
        <lane id=":2_c0_0" index="0" allow="pedestrian" speed="2.78" length="12.80" width="4.00" shape="456.40,608.40 443.60,608.40" outlineShape="456.40,610.40 443.60,610.40 443.60,606.40 439.60,606.40 439.60,608.40 441.60,610.40 443.60,610.40 443.60,606.40 456.40,606.40"/>
    </edge>
    <edge id=":2_c1" function="crossing" crossingEdges="-h13 h13">
        <lane id=":2_c1_0" index="0" allow="pedestrian" speed="2.78" length="12.80" width="4.00" shape="458.40,593.60 458.40,606.40" outlineShape="460.40,593.60 460.40,606.40 456.40,606.40 456.40,593.60"/>
    </edge>
    <edge id=":2_c2" function="crossing" crossingEdges="-v22 v22">
        <lane id=":2_c2_0" index="0" allow="pedestrian" speed="2.78" length="12.80" width="4.00" shape="443.60,591.60 456.40,591.60" outlineShape="443.60,589.60 456.40,589.60 456.40,593.60 460.40,593.60 460.40,591.60 458.40,589.60 456.40,589.60 456.40,593.60 443.60,593.60"/>
    </edge>
    <edge id=":2_c3" function="crossing" crossingEdges="h12 -h12">
        <lane id=":2_c3_0" index="0" allow="pedestrian" speed="2.78" length="12.80" width="4.00" shape="441.60,606.40 441.60,593.60" outlineShape="439.60,606.40 439.60,593.60 443.60,593.60 443.60,606.40"/>
    </edge>
    <edge id=":2_w0" function="walkingarea">
        <lane id=":2_w0_0" index="0" allow="pedestrian" speed="2.78" length="3.30" width="4.00" shape="443.60,606.40 439.60,606.40 439.60,608.40 441.60,610.40 443.60,610.40 443.60,606.40"/>
    </edge>
    <edge id=":2_w1" function="walkingarea">
        <lane id=":2_w1_0" index="0" allow="pedestrian" speed="2.78" length="3.30" width="4.00" shape="456.40,606.40 456.40,610.40 458.40,610.40 460.40,608.40 460.40,606.40 456.40,606.40"/>
    </edge>
    <edge id=":2_w2" function="walkingarea">
        <lane id=":2_w2_0" index="0" allow="pedestrian" speed="2.78" length="3.30" width="4.00" shape="456.40,593.60 460.40,593.60 460.40,591.60 458.40,589.60 456.40,589.60 456.40,593.60"/>
    </edge>
    <edge id=":2_w3" function="walkingarea">
        <lane id=":2_w3_0" index="0" allow="pedestrian" speed="2.78" length="3.30" width="4.00" shape="443.60,593.60 443.60,589.60 441.60,589.60 439.60,591.60 439.60,593.60 443.60,593.60"/>
    </edge>
    <edge id=":3_w0" function="walkingarea">
        <lane id=":3_w0_0" index="0" allow="pedestrian" speed="2.78" length="14.80" width="2.00" shape="600.00,606.40 600.00,608.40 600.00,591.60 600.00,593.60"/>
    </edge>
    <edge id=":4_w0" function="walkingarea">
        <lane id=":4_w0_0" index="0" allow="pedestrian" speed="2.78" length="14.80" width="2.00" shape="150.00,443.60 150.00,441.60 150.00,458.40 150.00,456.40"/>
    </edge>
    <edge id=":5_0" function="internal">
        <lane id=":5_0_0" index="0" disallow="pedestrian" speed="13.89" length="4.75" shape="295.20,460.40 294.85,457.95 293.80,456.20 293.60,456.08"/>
    </edge>
    <edge id=":5_1" function="internal">
        <lane id=":5_1_0" index="0" disallow="pedestrian" speed="13.89" length="20.80" shape="295.20,460.40 295.20,439.60"/>
        <lane id=":5_1_1" index="1" disallow="pedestrian" speed="13.89" length="20.80" shape="298.40,460.40 298.40,439.60"/>
    </edge>
    <edge id=":5_3" function="internal">
        <lane id=":5_3_0" index="0" disallow="pedestrian" speed="13.89" length="5.01" shape="298.40,460.40 299.11,455.44"/>
    </edge>
    <edge id=":5_16" function="internal">
        <lane id=":5_16_0" index="0" disallow="pedestrian" speed="13.89" length="4.28" shape="293.60,456.08 292.05,455.15 289.60,454.80"/>
    </edge>
    <edge id=":5_17" function="internal">
        <lane id=":5_17_0" index="0" disallow="pedestrian" speed="13.89" length="14.34" shape="299.11,455.44 299.15,455.15 301.40,451.40 305.15,449.15 310.40,448.40"/>
    </edge>
    <edge id=":5_4" function="internal">
        <lane id=":5_4_0" index="0" disallow="pedestrian" speed="13.89" length="4.75" shape="310.40,454.80 307.95,455.15 306.20,456.20 306.08,456.40"/>
    </edge>
    <edge id=":5_5" function="internal">
        <lane id=":5_5_0" index="0" disallow="pedestrian" speed="13.89" length="20.80" shape="310.40,454.80 289.60,454.80"/>
        <lane id=":5_5_1" index="1" disallow="pedestrian" speed="13.89" length="20.80" shape="310.40,451.60 289.60,451.60"/>
    </edge>
    <edge id=":5_7" function="internal">
        <lane id=":5_7_0" index="0" disallow="pedestrian" speed="13.89" length="5.01" shape="310.40,451.60 305.44,450.89"/>
    </edge>
    <edge id=":5_18" function="internal">
        <lane id=":5_18_0" index="0" disallow="pedestrian" speed="13.89" length="4.28" shape="306.08,456.40 305.15,457.95 304.80,460.40"/>
    </edge>
    <edge id=":5_19" function="internal">
        <lane id=":5_19_0" index="0" disallow="pedestrian" speed="13.89" length="14.34" shape="305.44,450.89 305.15,450.85 301.40,448.60 299.15,444.85 298.40,439.60"/>
    </edge>
    <edge id=":5_8" function="internal">
        <lane id=":5_8_0" index="0" disallow="pedestrian" speed="13.89" length="4.75" shape="304.80,439.60 305.15,442.05 306.20,443.80 306.40,443.92"/>
    </edge>
    <edge id=":5_9" function="internal">
        <lane id=":5_9_0" index="0" disallow="pedestrian" speed="13.89" length="20.80" shape="304.80,439.60 304.80,460.40"/>
        <lane id=":5_9_1" index="1" disallow="pedestrian" speed="13.89" length="20.80" shape="301.60,439.60 301.60,460.40"/>
    </edge>
    <edge id=":5_11" function="internal">
        <lane id=":5_11_0" index="0" disallow="pedestrian" speed="13.89" length="5.01" shape="301.60,439.60 300.89,444.56"/>
    </edge>
    <edge id=":5_20" function="internal">
        <lane id=":5_20_0" index="0" disallow="pedestrian" speed="13.89" length="4.28" shape="306.40,443.92 307.95,444.85 310.40,445.20"/>
    </edge>
    <edge id=":5_21" function="internal">
        <lane id=":5_21_0" index="0" disallow="pedestrian" speed="13.89" length="14.34" shape="300.89,444.56 300.85,444.85 298.60,448.60 294.85,450.85 289.60,451.60"/>
    </edge>
    <edge id=":5_12" function="internal">
        <lane id=":5_12_0" index="0" disallow="pedestrian" speed="13.89" length="4.75" shape="289.60,445.20 292.05,444.85 293.80,443.80 293.92,443.60"/>
    </edge>
    <edge id=":5_13" function="internal">
        <lane id=":5_13_0" index="0" disallow="pedestrian" speed="13.89" length="20.80" shape="289.60,445.20 310.40,445.20"/>
        <lane id=":5_13_1" index="1" disallow="pedestrian" speed="13.89" length="20.80" shape="289.60,448.40 310.40,448.40"/>
    </edge>
    <edge id=":5_15" function="internal">
        <lane id=":5_15_0" index="0" disallow="pedestrian" speed="13.89" length="5.01" shape="289.60,448.40 294.56,449.11"/>
    </edge>
    <edge id=":5_22" function="internal">
        <lane id=":5_22_0" index="0" disallow="pedestrian" speed="13.89" length="4.28" shape="293.92,443.60 294.85,442.05 295.20,439.60"/>
    </edge>
    <edge id=":5_23" function="internal">
        <lane id=":5_23_0" index="0" disallow="pedestrian" speed="13.89" length="14.34" shape="294.56,449.11 294.85,449.15 298.60,451.40 300.85,455.15 301.60,460.40"/>
    </edge>
    <edge id=":5_c0" function="crossing" crossingEdges="v12 -v12">
        <lane id=":5_c0_0" index="0" allow="pedestrian" speed="2.78" length="12.80" width="4.00" shape="306.40,458.40 293.60,458.40" outlineShape="306.40,460.40 293.60,460.40 293.60,456.40 306.40,456.40"/>
    </edge>
    <edge id=":5_c1" function="crossing" crossingEdges="-h22 h22">
        <lane id=":5_c1_0" index="0" allow="pedestrian" speed="2.78" length="12.80" width="4.00" shape="308.40,443.60 308.40,456.40" outlineShape="310.40,443.60 310.40,456.40 306.40,456.40 306.40,443.60"/>
    </edge>
    <edge id=":5_c2" function="crossing" crossingEdges="-v13 v13">
        <lane id=":5_c2_0" index="0" allow="pedestrian" speed="2.78" length="12.80" width="4.00" shape="293.60,441.60 306.40,441.60" outlineShape="293.60,439.60 306.40,439.60 306.40,443.60 293.60,443.60"/>
    </edge>
    <edge id=":5_c3" function="crossing" crossingEdges="h21 -h21">
        <lane id=":5_c3_0" index="0" allow="pedestrian" speed="2.78" length="12.80" width="4.00" shape="291.60,456.40 291.60,443.60" outlineShape="289.60,456.40 289.60,443.60 293.60,443.60 293.60,456.40"/>
    </edge>
    <edge id=":5_w0" function="walkingarea">
        <lane id=":5_w0_0" index="0" allow="pedestrian" speed="2.78" length="3.30" width="4.00" shape="293.60,456.40 289.60,456.40 289.60,458.40 291.60,460.40 293.60,460.40 293.60,456.40"/>
    </edge>
    <edge id=":5_w1" function="walkingarea">
        <lane id=":5_w1_0" index="0" allow="pedestrian" speed="2.78" length="3.30" width="4.00" shape="306.40,456.40 306.40,460.40 308.40,460.40 310.40,458.40 310.40,456.40 306.40,456.40"/>
    </edge>
    <edge id=":5_w2" function="walkingarea">
        <lane id=":5_w2_0" index="0" allow="pedestrian" speed="2.78" length="3.30" width="4.00" shape="306.40,443.60 310.40,443.60 310.40,441.60 308.40,439.60 306.40,439.60 306.40,443.60"/>
    </edge>
    <edge id=":5_w3" function="walkingarea">
        <lane id=":5_w3_0" index="0" allow="pedestrian" speed="2.78" length="3.30" width="4.00" shape="293.60,443.60 293.60,439.60 291.60,439.60 289.60,441.60 289.60,443.60 293.60,443.60"/>
    </edge>
    <edge id=":6_0" function="internal">
        <lane id=":6_0_0" index="0" disallow="pedestrian" speed="13.89" length="4.75" shape="445.20,460.40 444.85,457.95 443.80,456.20 443.60,456.08"/>
    </edge>
    <edge id=":6_1" function="internal">
        <lane id=":6_1_0" index="0" disallow="pedestrian" speed="13.89" length="20.80" shape="445.20,460.40 445.20,439.60"/>
        <lane id=":6_1_1" index="1" disallow="pedestrian" speed="13.89" length="20.80" shape="448.40,460.40 448.40,439.60"/>
    </edge>
    <edge id=":6_3" function="internal">
        <lane id=":6_3_0" index="0" disallow="pedestrian" speed="13.89" length="5.01" shape="448.40,460.40 449.11,455.44"/>
    </edge>
    <edge id=":6_16" function="internal">
        <lane id=":6_16_0" index="0" disallow="pedestrian" speed="13.89" length="4.28" shape="443.60,456.08 442.05,455.15 439.60,454.80"/>
    </edge>
    <edge id=":6_17" function="internal">
        <lane id=":6_17_0" index="0" disallow="pedestrian" speed="13.89" length="14.34" shape="449.11,455.44 449.15,455.15 451.40,451.40 455.15,449.15 460.40,448.40"/>
    </edge>
    <edge id=":6_4" function="internal">
        <lane id=":6_4_0" index="0" disallow="pedestrian" speed="13.89" length="4.75" shape="460.40,454.80 457.95,455.15 456.20,456.20 456.08,456.40"/>
    </edge>
    <edge id=":6_5" function="internal">
        <lane id=":6_5_0" index="0" disallow="pedestrian" speed="13.89" length="20.80" shape="460.40,454.80 439.60,454.80"/>
        <lane id=":6_5_1" index="1" disallow="pedestrian" speed="13.89" length="20.80" shape="460.40,451.60 439.60,451.60"/>
    </edge>
    <edge id=":6_7" function="internal">
        <lane id=":6_7_0" index="0" disallow="pedestrian" speed="13.89" length="5.01" shape="460.40,451.60 455.44,450.89"/>
    </edge>
    <edge id=":6_18" function="internal">
        <lane id=":6_18_0" index="0" disallow="pedestrian" speed="13.89" length="4.28" shape="456.08,456.40 455.15,457.95 454.80,460.40"/>
    </edge>
    <edge id=":6_19" function="internal">
        <lane id=":6_19_0" index="0" disallow="pedestrian" speed="13.89" length="14.34" shape="455.44,450.89 455.15,450.85 451.40,448.60 449.15,444.85 448.40,439.60"/>
    </edge>
    <edge id=":6_8" function="internal">
        <lane id=":6_8_0" index="0" disallow="pedestrian" speed="13.89" length="4.75" shape="454.80,439.60 455.15,442.05 456.20,443.80 456.40,443.92"/>
    </edge>
    <edge id=":6_9" function="internal">
        <lane id=":6_9_0" index="0" disallow="pedestrian" speed="13.89" length="20.80" shape="454.80,439.60 454.80,460.40"/>
        <lane id=":6_9_1" index="1" disallow="pedestrian" speed="13.89" length="20.80" shape="451.60,439.60 451.60,460.40"/>
    </edge>
    <edge id=":6_11" function="internal">
        <lane id=":6_11_0" index="0" disallow="pedestrian" speed="13.89" length="5.01" shape="451.60,439.60 450.89,444.56"/>
    </edge>
    <edge id=":6_20" function="internal">
        <lane id=":6_20_0" index="0" disallow="pedestrian" speed="13.89" length="4.28" shape="456.40,443.92 457.95,444.85 460.40,445.20"/>
    </edge>
    <edge id=":6_21" function="internal">
        <lane id=":6_21_0" index="0" disallow="pedestrian" speed="13.89" length="14.34" shape="450.89,444.56 450.85,444.85 448.60,448.60 444.85,450.85 439.60,451.60"/>
    </edge>
    <edge id=":6_12" function="internal">
        <lane id=":6_12_0" index="0" disallow="pedestrian" speed="13.89" length="4.75" shape="439.60,445.20 442.05,444.85 443.80,443.80 443.92,443.60"/>
    </edge>
    <edge id=":6_13" function="internal">
        <lane id=":6_13_0" index="0" disallow="pedestrian" speed="13.89" length="20.80" shape="439.60,445.20 460.40,445.20"/>
        <lane id=":6_13_1" index="1" disallow="pedestrian" speed="13.89" length="20.80" shape="439.60,448.40 460.40,448.40"/>
    </edge>
    <edge id=":6_15" function="internal">
        <lane id=":6_15_0" index="0" disallow="pedestrian" speed="13.89" length="5.01" shape="439.60,448.40 444.56,449.11"/>
    </edge>
    <edge id=":6_22" function="internal">
        <lane id=":6_22_0" index="0" disallow="pedestrian" speed="13.89" length="4.28" shape="443.92,443.60 444.85,442.05 445.20,439.60"/>
    </edge>
    <edge id=":6_23" function="internal">
        <lane id=":6_23_0" index="0" disallow="pedestrian" speed="13.89" length="14.34" shape="444.56,449.11 444.85,449.15 448.60,451.40 450.85,455.15 451.60,460.40"/>
    </edge>
    <edge id=":6_c0" function="crossing" crossingEdges="v22 -v22">
        <lane id=":6_c0_0" index="0" allow="pedestrian" speed="2.78" length="12.80" width="4.00" shape="456.40,458.40 443.60,458.40" outlineShape="456.40,460.40 443.60,460.40 443.60,456.40 456.40,456.40"/>
    </edge>
    <edge id=":6_c1" function="crossing" crossingEdges="-h23 h23">
        <lane id=":6_c1_0" index="0" allow="pedestrian" speed="2.78" length="12.80" width="4.00" shape="458.40,443.60 458.40,456.40" outlineShape="460.40,443.60 460.40,456.40 456.40,456.40 456.40,443.60"/>
    </edge>
    <edge id=":6_c2" function="crossing" crossingEdges="-v23 v23">
        <lane id=":6_c2_0" index="0" allow="pedestrian" speed="2.78" length="12.80" width="4.00" shape="443.60,441.60 456.40,441.60" outlineShape="443.60,439.60 456.40,439.60 456.40,443.60 443.60,443.60"/>
    </edge>
    <edge id=":6_c3" function="crossing" crossingEdges="h22 -h22">
        <lane id=":6_c3_0" index="0" allow="pedestrian" speed="2.78" length="12.80" width="4.00" shape="441.60,456.40 441.60,443.60" outlineShape="439.60,456.40 439.60,443.60 443.60,443.60 443.60,456.40"/>
    </edge>
    <edge id=":6_w0" function="walkingarea">
        <lane id=":6_w0_0" index="0" allow="pedestrian" speed="2.78" length="3.30" width="4.00" shape="443.60,456.40 439.60,456.40 439.60,458.40 441.60,460.40 443.60,460.40 443.60,456.40"/>
    </edge>
    <edge id=":6_w1" function="walkingarea">
        <lane id=":6_w1_0" index="0" allow="pedestrian" speed="2.78" length="3.30" width="4.00" shape="456.40,456.40 456.40,460.40 458.40,460.40 460.40,458.40 460.40,456.40 456.40,456.40"/>
    </edge>
    <edge id=":6_w2" function="walkingarea">
        <lane id=":6_w2_0" index="0" allow="pedestrian" speed="2.78" length="3.30" width="4.00" shape="456.40,443.60 460.40,443.60 460.40,441.60 458.40,439.60 456.40,439.60 456.40,443.60"/>
    </edge>
    <edge id=":6_w3" function="walkingarea">
        <lane id=":6_w3_0" index="0" allow="pedestrian" speed="2.78" length="3.30" width="4.00" shape="443.60,443.60 443.60,439.60 441.60,439.60 439.60,441.60 439.60,443.60 443.60,443.60"/>
    </edge>
    <edge id=":7_w0" function="walkingarea">
        <lane id=":7_w0_0" index="0" allow="pedestrian" speed="2.78" length="14.80" width="2.00" shape="600.00,456.40 600.00,458.40 600.00,441.60 600.00,443.60"/>
    </edge>
    <edge id=":9_w0" function="walkingarea">
        <lane id=":9_w0_0" index="0" allow="pedestrian" speed="2.78" length="14.80" width="2.00" shape="306.40,300.00 308.40,300.00 291.60,300.00 293.60,300.00"/>
    </edge>

    <edge id="-h11" from="0" to="1" priority="1">
        <lane id="-h11_0" index="0" allow="pedestrian" speed="13.89" length="139.60" width="2.00" shape="150.00,592.60 289.60,592.60"/>
        <lane id="-h11_1" index="1" disallow="pedestrian" speed="13.89" length="139.60" shape="150.00,595.20 289.60,595.20"/>