<?xml version="1.0" encoding="UTF-8"?>

<!-- generated by generate_routes.py -->
<routes>
    <!-- Generated by generate_routes.py (seed=42, demand=low). Total veh: 2000 veh/h, total ped: 480 ped/h. -->
    <flow id="f_-h11_to_v21" begin="0.00" end="3600.00" perHour="250.00" from="-h11" to="v21" departLane="best" departSpeed="max"/>
    <flow id="f_-h21_to_-h13" begin="0.00" end="3600.00" perHour="250.00" from="-h21" to="-h13" departLane="best" departSpeed="max"/>
    <flow id="f_-v11_to_-v13" begin="0.00" end="3600.00" perHour="250.00" from="-v11" to="-v13" departLane="best" departSpeed="max"/>
    <flow id="f_-v21_to_-v23" begin="0.00" end="3600.00" perHour="250.00" from="-v21" to="-v23" departLane="best" departSpeed="max"/>
    <flow id="f_h13_to_v11" begin="0.00" end="3600.00" perHour="250.00" from="h13" to="v11" departLane="best" departSpeed="max"/>
    <flow id="f_h23_to_h11" begin="0.00" end="3600.00" perHour="250.00" from="h23" to="h11" departLane="best" departSpeed="max"/>
    <flow id="f_v13_to_-h23" begin="0.00" end="3600.00" perHour="250.00" from="v13" to="-h23" departLane="best" departSpeed="max"/>
    <flow id="f_v23_to_h21" begin="0.00" end="3600.00" perHour="250.00" from="v23" to="h21" departLane="best" departSpeed="max"/>
    <personFlow id="pf_-h11_to_v21" begin="0.00" end="3600.00" perHour="60.00">
        <personTrip from="-h11" to="v21"/>
    </personFlow>
    <personFlow id="pf_-h21_to_-v23" begin="0.00" end="3600.00" perHour="60.00">
        <personTrip from="-h21" to="-v23"/>
    </personFlow>
    <personFlow id="pf_-v11_to_-h13" begin="0.00" end="3600.00" perHour="60.00">
        <personTrip from="-v11" to="-h13"/>
    </personFlow>
    <personFlow id="pf_-v21_to_v11" begin="0.00" end="3600.00" perHour="60.00">
        <personTrip from="-v21" to="v11"/>
    </personFlow>
    <personFlow id="pf_h13_to_h11" begin="0.00" end="3600.00" perHour="60.00">
        <personTrip from="h13" to="h11"/>
    </personFlow>
    <personFlow id="pf_h23_to_-v13" begin="0.00" end="3600.00" perHour="60.00">
        <personTrip from="h23" to="-v13"/>
    </personFlow>
    <personFlow id="pf_v13_to_-h23" begin="0.00" end="3600.00" perHour="60.00">
        <personTrip from="v13" to="-h23"/>
    </personFlow>
    <personFlow id="pf_v23_to_h21" begin="0.00" end="3600.00" perHour="60.00">
        <personTrip from="v23" to="h21"/>
    </personFlow>
</routes>
