<?xml version="1.0" encoding="UTF-8"?>

<!-- generated on 2026-05-13T00:14:24.333734+00:00 by Eclipse SUMO netconvert 1.26.0
<netconvertConfiguration xmlns:xsi="http://www.w3.org/2001/XMLSchema-instance" xsi:noNamespaceSchemaLocation="http://sumo.dlr.de/xsd/netconvertConfiguration.xsd">

    <input>
        <node-files value=".\4x4.nod.xml"/>
        <edge-files value=".\4x4.edg.xml"/>
        <tllogic-files value=".\4x4.tll.xml"/>
    </input>

    <output>
        <output-file value=".\4x4.net.xml"/>
    </output>

    <processing>
        <offset.disable-normalization value="true"/>
    </processing>

    <junctions>
        <no-internal-links value="false"/>
        <no-turnarounds value="true"/>
    </junctions>

    <pedestrian>
        <crossings.guess value="true"/>
    </pedestrian>

</netconvertConfiguration>
-->

<net version="1.20" junctionCornerDetail="5" walkingareas="true" limitTurnSpeed="5.50" xmlns:xsi="http://www.w3.org/2001/XMLSchema-instance" xsi:noNamespaceSchemaLocation="http://sumo.dlr.de/xsd/net_file.xsd">

    <location netOffset="0.00,0.00" convBoundary="150.00,150.00,900.00,900.00" origBoundary="150.00,150.00,900.00,900.00" projParameter="!"/>

    <edge id=":E1_w0" function="walkingarea">
        <lane id=":E1_w0_0" index="0" allow="pedestrian" speed="2.78" length="14.80" width="2.00" shape="900.00,756.40 900.00,758.40 900.00,741.60 900.00,743.60"/>
    </edge>
    <edge id=":E2_w0" function="walkingarea">
        <lane id=":E2_w0_0" index="0" allow="pedestrian" speed="2.78" length="14.80" width="2.00" shape="900.00,606.40 900.00,608.40 900.00,591.60 900.00,593.60"/>
    </edge>
    <edge id=":E3_w0" function="walkingarea">
        <lane id=":E3_w0_0" index="0" allow="pedestrian" speed="2.78" length="14.80" width="2.00" shape="900.00,456.40 900.00,458.40 900.00,441.60 900.00,443.60"/>
    </edge>
    <edge id=":E4_w0" function="walkingarea">
        <lane id=":E4_w0_0" index="0" allow="pedestrian" speed="2.78" length="14.80" width="2.00" shape="900.00,306.40 900.00,308.40 900.00,291.60 900.00,293.60"/>
    </edge>
    <edge id=":J11_0" function="internal">
        <lane id=":J11_0_0" index="0" disallow="pedestrian" speed="6.51" length="4.75" shape="295.20,760.40 294.85,757.95 293.80,756.20 293.60,756.08"/>
    </edge>
    <edge id=":J11_1" function="internal">
        <lane id=":J11_1_0" index="0" disallow="pedestrian" speed="13.89" length="20.80" shape="295.20,760.40 295.20,739.60"/>
        <lane id=":J11_1_1" index="1" disallow="pedestrian" speed="13.89" length="20.80" shape="298.40,760.40 298.40,739.60"/>
    </edge>
    <edge id=":J11_3" function="internal">
        <lane id=":J11_3_0" index="0" disallow="pedestrian" speed="9.26" length="5.01" shape="298.40,760.40 299.11,755.44"/>
    </edge>
    <edge id=":J11_16" function="internal">
        <lane id=":J11_16_0" index="0" disallow="pedestrian" speed="6.51" length="4.28" shape="293.60,756.08 292.05,755.15 289.60,754.80"/>
    </edge>
    <edge id=":J11_17" function="internal">
        <lane id=":J11_17_0" index="0" disallow="pedestrian" speed="9.26" length="14.34" shape="299.11,755.44 299.15,755.15 301.40,751.40 305.15,749.15 310.40,748.40"/>
    </edge>
    <edge id=":J11_4" function="internal">
        <lane id=":J11_4_0" index="0" disallow="pedestrian" speed="6.51" length="4.75" shape="310.40,754.80 307.95,755.15 306.20,756.20 306.08,756.40"/>
    </edge>
    <edge id=":J11_5" function="internal">
        <lane id=":J11_5_0" index="0" disallow="pedestrian" speed="13.89" length="20.80" shape="310.40,754.80 289.60,754.80"/>
        <lane id=":J11_5_1" index="1" disallow="pedestrian" speed="13.89" length="20.80" shape="310.40,751.60 289.60,751.60"/>
    </edge>
    <edge id=":J11_7" function="internal">
        <lane id=":J11_7_0" index="0" disallow="pedestrian" speed="9.26" length="5.01" shape="310.40,751.60 305.44,750.89"/>
    </edge>
    <edge id=":J11_18" function="internal">
        <lane id=":J11_18_0" index="0" disallow="pedestrian" speed="6.51" length="4.28" shape="306.08,756.40 305.15,757.95 304.80,760.40"/>
    </edge>
    <edge id=":J11_19" function="internal">
        <lane id=":J11_19_0" index="0" disallow="pedestrian" speed="9.26" length="14.34" shape="305.44,750.89 305.15,750.85 301.40,748.60 299.15,744.85 298.40,739.60"/>
    </edge>
    <edge id=":J11_8" function="internal">
        <lane id=":J11_8_0" index="0" disallow="pedestrian" speed="6.51" length="4.75" shape="304.80,739.60 305.15,742.05 306.20,743.80 306.40,743.92"/>
    </edge>
    <edge id=":J11_9" function="internal">
        <lane id=":J11_9_0" index="0" disallow="pedestrian" speed="13.89" length="20.80" shape="304.80,739.60 304.80,760.40"/>
        <lane id=":J11_9_1" index="1" disallow="pedestrian" speed="13.89" length="20.80" shape="301.60,739.60 301.60,760.40"/>
    </edge>
    <edge id=":J11_11" function="internal">
        <lane id=":J11_11_0" index="0" disallow="pedestrian" speed="9.26" length="5.01" shape="301.60,739.60 300.89,744.56"/>
    </edge>
    <edge id=":J11_20" function="internal">
        <lane id=":J11_20_0" index="0" disallow="pedestrian" speed="6.51" length="4.28" shape="306.40,743.92 307.95,744.85 310.40,745.20"/>
    </edge>
    <edge id=":J11_21" function="internal">
        <lane id=":J11_21_0" index="0" disallow="pedestrian" speed="9.26" length="14.34" shape="300.89,744.56 300.85,744.85 298.60,748.60 294.85,750.85 289.60,751.60"/>
    </edge>
    <edge id=":J11_12" function="internal">
        <lane id=":J11_12_0" index="0" disallow="pedestrian" speed="6.51" length="4.75" shape="289.60,745.20 292.05,744.85 293.80,743.80 293.92,743.60"/>
    </edge>
    <edge id=":J11_13" function="internal">
        <lane id=":J11_13_0" index="0" disallow="pedestrian" speed="13.89" length="20.80" shape="289.60,745.20 310.40,745.20"/>
        <lane id=":J11_13_1" index="1" disallow="pedestrian" speed="13.89" length="20.80" shape="289.60,748.40 310.40,748.40"/>
    </edge>
    <edge id=":J11_15" function="internal">
        <lane id=":J11_15_0" index="0" disallow="pedestrian" speed="9.26" length="5.01" shape="289.60,748.40 294.56,749.11"/>
    </edge>
    <edge id=":J11_22" function="internal">
        <lane id=":J11_22_0" index="0" disallow="pedestrian" speed="6.51" length="4.28" shape="293.92,743.60 294.85,742.05 295.20,739.60"/>
    </edge>
    <edge id=":J11_23" function="internal">
        <lane id=":J11_23_0" index="0" disallow="pedestrian" speed="9.26" length="14.34" shape="294.56,749.11 294.85,749.15 298.60,751.40 300.85,755.15 301.60,760.40"/>
    </edge>
    <edge id=":J11_c0" function="crossing" crossingEdges="v11 -v11">
        <lane id=":J11_c0_0" index="0" allow="pedestrian" speed="2.78" length="12.80" width="4.00" shape="306.40,758.40 293.60,758.40" outlineShape="306.40,760.40 293.60,760.40 289.60,756.40 289.60,758.40 291.60,760.40 293.60,760.40 289.60,756.40 310.40,756.40 309.18,756.51 308.18,756.84 307.40,757.40 306.84,758.18 306.51,759.18"/>
    </edge>
    <edge id=":J11_c1" function="crossing" crossingEdges="-h12 h12">
        <lane id=":J11_c1_0" index="0" allow="pedestrian" speed="2.78" length="12.80" width="4.00" shape="308.40,743.60 308.40,756.40" outlineShape="310.40,743.60 310.40,756.40 306.40,760.40 308.40,760.40 310.40,758.40 310.40,756.40 306.40,760.40 306.40,739.60 306.51,740.82 306.84,741.82 307.40,742.60 308.18,743.16 309.18,743.49"/>
    </edge>
    <edge id=":J11_c2" function="crossing" crossingEdges="-v12 v12">
        <lane id=":J11_c2_0" index="0" allow="pedestrian" speed="2.78" length="12.80" width="4.00" shape="293.60,741.60 306.40,741.60" outlineShape="293.60,739.60 306.40,739.60 310.40,743.60 310.40,741.60 308.40,739.60 306.40,739.60 310.40,743.60 289.60,743.60 290.82,743.49 291.82,743.16 292.60,742.60 293.16,741.82 293.49,740.82"/>
    </edge>
    <edge id=":J11_c3" function="crossing" crossingEdges="h11 -h11">
        <lane id=":J11_c3_0" index="0" allow="pedestrian" speed="2.78" length="12.80" width="4.00" shape="291.60,756.40 291.60,743.60" outlineShape="289.60,756.40 289.60,743.60 293.60,739.60 291.60,739.60 289.60,741.60 289.60,743.60 293.60,739.60 293.60,760.40 293.49,759.18 293.16,758.18 292.60,757.40 291.82,756.84 290.82,756.51"/>
    </edge>
    <edge id=":J11_w0" function="walkingarea">
        <lane id=":J11_w0_0" index="0" allow="pedestrian" speed="2.78" length="3.30" width="4.00" shape="289.60,756.40 289.60,758.40 291.60,760.40 293.60,760.40 293.49,759.18 293.16,758.18 292.60,757.40 291.82,756.84 290.82,756.51"/>
    </edge>
    <edge id=":J11_w1" function="walkingarea">
        <lane id=":J11_w1_0" index="0" allow="pedestrian" speed="2.78" length="3.30" width="4.00" shape="306.40,760.40 308.40,760.40 310.40,758.40 310.40,756.40 309.18,756.51 308.18,756.84 307.40,757.40 306.84,758.18 306.51,759.18"/>
    </edge>
    <edge id=":J11_w2" function="walkingarea">
        <lane id=":J11_w2_0" index="0" allow="pedestrian" speed="2.78" length="3.30" width="4.00" shape="310.40,743.60 310.40,741.60 308.40,739.60 306.40,739.60 306.51,740.82 306.84,741.82 307.40,742.60 308.18,743.16 309.18,743.49"/>
    </edge>
    <edge id=":J11_w3" function="walkingarea">
        <lane id=":J11_w3_0" index="0" allow="pedestrian" speed="2.78" length="3.30" width="4.00" shape="293.60,739.60 291.60,739.60 289.60,741.60 289.60,743.60 290.82,743.49 291.82,743.16 292.60,742.60 293.16,741.82 293.49,740.82"/>
    </edge>
    <edge id=":J12_0" function="internal">
        <lane id=":J12_0_0" index="0" disallow="pedestrian" speed="6.51" length="4.75" shape="445.20,760.40 444.85,757.95 443.80,756.20 443.60,756.08"/>
    </edge>
    <edge id=":J12_1" function="internal">
        <lane id=":J12_1_0" index="0" disallow="pedestrian" speed="13.89" length="20.80" shape="445.20,760.40 445.20,739.60"/>
        <lane id=":J12_1_1" index="1" disallow="pedestrian" speed="13.89" length="20.80" shape="448.40,760.40 448.40,739.60"/>
    </edge>
    <edge id=":J12_3" function="internal">
        <lane id=":J12_3_0" index="0" disallow="pedestrian" speed="9.26" length="5.01" shape="448.40,760.40 449.11,755.44"/>
    </edge>
    <edge id=":J12_16" function="internal">
        <lane id=":J12_16_0" index="0" disallow="pedestrian" speed="6.51" length="4.28" shape="443.60,756.08 442.05,755.15 439.60,754.80"/>
    </edge>
    <edge id=":J12_17" function="internal">
        <lane id=":J12_17_0" index="0" disallow="pedestrian" speed="9.26" length="14.34" shape="449.11,755.44 449.15,755.15 451.40,751.40 455.15,749.15 460.40,748.40"/>
    </edge>
    <edge id=":J12_4" function="internal">
        <lane id=":J12_4_0" index="0" disallow="pedestrian" speed="6.51" length="4.75" shape="460.40,754.80 457.95,755.15 456.20,756.20 456.08,756.40"/>
    </edge>
    <edge id=":J12_5" function="internal">
        <lane id=":J12_5_0" index="0" disallow="pedestrian" speed="13.89" length="20.80" shape="460.40,754.80 439.60,754.80"/>
        <lane id=":J12_5_1" index="1" disallow="pedestrian" speed="13.89" length="20.80" shape="460.40,751.60 439.60,751.60"/>
    </edge>
    <edge id=":J12_7" function="internal">
        <lane id=":J12_7_0" index="0" disallow="pedestrian" speed="9.26" length="5.01" shape="460.40,751.60 455.44,750.89"/>
    </edge>
    <edge id=":J12_18" function="internal">
        <lane id=":J12_18_0" index="0" disallow="pedestrian" speed="6.51" length="4.28" shape="456.08,756.40 455.15,757.95 454.80,760.40"/>
    </edge>
    <edge id=":J12_19" function="internal">
        <lane id=":J12_19_0" index="0" disallow="pedestrian" speed="9.26" length="14.34" shape="455.44,750.89 455.15,750.85 451.40,748.60 449.15,744.85 448.40,739.60"/>
    </edge>
    <edge id=":J12_8" function="internal">
        <lane id=":J12_8_0" index="0" disallow="pedestrian" speed="6.51" length="4.75" shape="454.80,739.60 455.15,742.05 456.20,743.80 456.40,743.92"/>
    </edge>
    <edge id=":J12_9" function="internal">
        <lane id=":J12_9_0" index="0" disallow="pedestrian" speed="13.89" length="20.80" shape="454.80,739.60 454.80,760.40"/>
        <lane id=":J12_9_1" index="1" disallow="pedestrian" speed="13.89" length="20.80" shape="451.60,739.60 451.60,760.40"/>
    </edge>
    <edge id=":J12_11" function="internal">
        <lane id=":J12_11_0" index="0" disallow="pedestrian" speed="9.26" length="5.01" shape="451.60,739.60 450.89,744.56"/>
    </edge>
    <edge id=":J12_20" function="internal">
        <lane id=":J12_20_0" index="0" disallow="pedestrian" speed="6.51" length="4.28" shape="456.40,743.92 457.95,744.85 460.40,745.20"/>
    </edge>
    <edge id=":J12_21" function="internal">
        <lane id=":J12_21_0" index="0" disallow="pedestrian" speed="9.26" length="14.34" shape="450.89,744.56 450.85,744.85 448.60,748.60 444.85,750.85 439.60,751.60"/>
    </edge>
    <edge id=":J12_12" function="internal">
        <lane id=":J12_12_0" index="0" disallow="pedestrian" speed="6.51" length="4.75" shape="439.60,745.20 442.05,744.85 443.80,743.80 443.92,743.60"/>
    </edge>
    <edge id=":J12_13" function="internal">
        <lane id=":J12_13_0" index="0" disallow="pedestrian" speed="13.89" length="20.80" shape="439.60,745.20 460.40,745.20"/>
        <lane id=":J12_13_1" index="1" disallow="pedestrian" speed="13.89" length="20.80" shape="439.60,748.40 460.40,748.40"/>
    </edge>
    <edge id=":J12_15" function="internal">
        <lane id=":J12_15_0" index="0" disallow="pedestrian" speed="9.26" length="5.01" shape="439.60,748.40 444.56,749.11"/>
    </edge>
    <edge id=":J12_22" function="internal">
        <lane id=":J12_22_0" index="0" disallow="pedestrian" speed="6.51" length="4.28" shape="443.92,743.60 444.85,742.05 445.20,739.60"/>
    </edge>
    <edge id=":J12_23" function="internal">
        <lane id=":J12_23_0" index="0" disallow="pedestrian" speed="9.26" length="14.34" shape="444.56,749.11 444.85,749.15 448.60,751.40 450.85,755.15 451.60,760.40"/>
    </edge>
    <edge id=":J12_c0" function="crossing" crossingEdges="v21 -v21">
        <lane id=":J12_c0_0" index="0" allow="pedestrian" speed="2.78" length="12.80" width="4.00" shape="456.40,758.40 443.60,758.40" outlineShape="456.40,760.40 443.60,760.40 439.60,756.40 439.60,758.40 441.60,760.40 443.60,760.40 439.60,756.40 460.40,756.40 459.18,756.51 458.18,756.84 457.40,757.40 456.84,758.18 456.51,759.18"/>
    </edge>
    <edge id=":J12_c1" function="crossing" crossingEdges="-h13 h13">
        <lane id=":J12_c1_0" index="0" allow="pedestrian" speed="2.78" length="12.80" width="4.00" shape="458.40,743.60 458.40,756.40" outlineShape="460.40,743.60 460.40,756.40 456.40,760.40 458.40,760.40 460.40,758.40 460.40,756.40 456.40,760.40 456.40,739.60 456.51,740.82 456.84,741.82 457.40,742.60 458.18,743.16 459.18,743.49"/>
    </edge>
    <edge id=":J12_c2" function="crossing" crossingEdges="-v22 v22">
        <lane id=":J12_c2_0" index="0" allow="pedestrian" speed="2.78" length="12.80" width="4.00" shape="443.60,741.60 456.40,741.60" outlineShape="443.60,739.60 456.40,739.60 460.40,743.60 460.40,741.60 458.40,739.60 456.40,739.60 460.40,743.60 439.60,743.60 440.82,743.49 441.82,743.16 442.60,742.60 443.16,741.82 443.49,740.82"/>
    </edge>
    <edge id=":J12_c3" function="crossing" crossingEdges="h12 -h12">
        <lane id=":J12_c3_0" index="0" allow="pedestrian" speed="2.78" length="12.80" width="4.00" shape="441.60,756.40 441.60,743.60" outlineShape="439.60,756.40 439.60,743.60 443.60,739.60 441.60,739.60 439.60,741.60 439.60,743.60 443.60,739.60 443.60,760.40 443.49,759.18 443.16,758.18 442.60,757.40 441.82,756.84 440.82,756.51"/>
    </edge>
    <edge id=":J12_w0" function="walkingarea">
        <lane id=":J12_w0_0" index="0" allow="pedestrian" speed="2.78" length="3.30" width="4.00" shape="439.60,756.40 439.60,758.40 441.60,760.40 443.60,760.40 443.49,759.18 443.16,758.18 442.60,757.40 441.82,756.84 440.82,756.51"/>
    </edge>
    <edge id=":J12_w1" function="walkingarea">
        <lane id=":J12_w1_0" index="0" allow="pedestrian" speed="2.78" length="3.30" width="4.00" shape="456.40,760.40 458.40,760.40 460.40,758.40 460.40,756.40 459.18,756.51 458.18,756.84 457.40,757.40 456.84,758.18 456.51,759.18"/>
    </edge>
    <edge id=":J12_w2" function="walkingarea">
        <lane id=":J12_w2_0" index="0" allow="pedestrian" speed="2.78" length="3.30" width="4.00" shape="460.40,743.60 460.40,741.60 458.40,739.60 456.40,739.60 456.51,740.82 456.84,741.82 457.40,742.60 458.18,743.16 459.18,743.49"/>
    </edge>
    <edge id=":J12_w3" function="walkingarea">
        <lane id=":J12_w3_0" index="0" allow="pedestrian" speed="2.78" length="3.30" width="4.00" shape="443.60,739.60 441.60,739.60 439.60,741.60 439.60,743.60 440.82,743.49 441.82,743.16 442.60,742.60 443.16,741.82 443.49,740.82"/>
    </edge>
    <edge id=":J13_0" function="internal">
        <lane id=":J13_0_0" index="0" disallow="pedestrian" speed="6.51" length="4.75" shape="595.20,760.40 594.85,757.95 593.80,756.20 593.60,756.08"/>
    </edge>
    <edge id=":J13_1" function="internal">
        <lane id=":J13_1_0" index="0" disallow="pedestrian" speed="13.89" length="20.80" shape="595.20,760.40 595.20,739.60"/>
        <lane id=":J13_1_1" index="1" disallow="pedestrian" speed="13.89" length="20.80" shape="598.40,760.40 598.40,739.60"/>
    </edge>
    <edge id=":J13_3" function="internal">
        <lane id=":J13_3_0" index="0" disallow="pedestrian" speed="9.26" length="5.01" shape="598.40,760.40 599.11,755.44"/>
    </edge>
    <edge id=":J13_16" function="internal">
        <lane id=":J13_16_0" index="0" disallow="pedestrian" speed="6.51" length="4.28" shape="593.60,756.08 592.05,755.15 589.60,754.80"/>
    </edge>
    <edge id=":J13_17" function="internal">
        <lane id=":J13_17_0" index="0" disallow="pedestrian" speed="9.26" length="14.34" shape="599.11,755.44 599.15,755.15 601.40,751.40 605.15,749.15 610.40,748.40"/>
    </edge>
    <edge id=":J13_4" function="internal">
        <lane id=":J13_4_0" index="0" disallow="pedestrian" speed="6.51" length="4.75" shape="610.40,754.80 607.95,755.15 606.20,756.20 606.08,756.40"/>
    </edge>
    <edge id=":J13_5" function="internal">
        <lane id=":J13_5_0" index="0" disallow="pedestrian" speed="13.89" length="20.80" shape="610.40,754.80 589.60,754.80"/>
        <lane id=":J13_5_1" index="1" disallow="pedestrian" speed="13.89" length="20.80" shape="610.40,751.60 589.60,751.60"/>
    </edge>
    <edge id=":J13_7" function="internal">
        <lane id=":J13_7_0" index="0" disallow="pedestrian" speed="9.26" length="5.01" shape="610.40,751.60 605.44,750.89"/>
    </edge>
    <edge id=":J13_18" function="internal">
        <lane id=":J13_18_0" index="0" disallow="pedestrian" speed="6.51" length="4.28" shape="606.08,756.40 605.15,757.95 604.80,760.40"/>
    </edge>
    <edge id=":J13_19" function="internal">
        <lane id=":J13_19_0" index="0" disallow="pedestrian" speed="9.26" length="14.34" shape="605.44,750.89 605.15,750.85 601.40,748.60 599.15,744.85 598.40,739.60"/>
    </edge>
    <edge id=":J13_8" function="internal">
        <lane id=":J13_8_0" index="0" disallow="pedestrian" speed="6.51" length="4.75" shape="604.80,739.60 605.15,742.05 606.20,743.80 606.40,743.92"/>
    </edge>
    <edge id=":J13_9" function="internal">
        <lane id=":J13_9_0" index="0" disallow="pedestrian" speed="13.89" length="20.80" shape="604.80,739.60 604.80,760.40"/>
        <lane id=":J13_9_1" index="1" disallow="pedestrian" speed="13.89" length="20.80" shape="601.60,739.60 601.60,760.40"/>
    </edge>
    <edge id=":J13_11" function="internal">
        <lane id=":J13_11_0" index="0" disallow="pedestrian" speed="9.26" length="5.01" shape="601.60,739.60 600.89,744.56"/>
    </edge>
    <edge id=":J13_20" function="internal">
        <lane id=":J13_20_0" index="0" disallow="pedestrian" speed="6.51" length="4.28" shape="606.40,743.92 607.95,744.85 610.40,745.20"/>
    </edge>
    <edge id=":J13_21" function="internal">
        <lane id=":J13_21_0" index="0" disallow="pedestrian" speed="9.26" length="14.34" shape="600.89,744.56 600.85,744.85 598.60,748.60 594.85,750.85 589.60,751.60"/>
    </edge>
    <edge id=":J13_12" function="internal">
        <lane id=":J13_12_0" index="0" disallow="pedestrian" speed="6.51" length="4.75" shape="589.60,745.20 592.05,744.85 593.80,743.80 593.92,743.60"/>
    </edge>
    <edge id=":J13_13" function="internal">
        <lane id=":J13_13_0" index="0" disallow="pedestrian" speed="13.89" length="20.80" shape="589.60,745.20 610.40,745.20"/>
        <lane id=":J13_13_1" index="1" disallow="pedestrian" speed="13.89" length="20.80" shape="589.60,748.40 610.40,748.40"/>
    </edge>
    <edge id=":J13_15" function="internal">
        <lane id=":J13_15_0" index="0" disallow="pedestrian" speed="9.26" length="5.01" shape="589.60,748.40 594.56,749.11"/>
    </edge>
    <edge id=":J13_22" function="internal">
        <lane id=":J13_22_0" index="0" disallow="pedestrian" speed="6.51" length="4.28" shape="593.92,743.60 594.85,742.05 595.20,739.60"/>
    </edge>
    <edge id=":J13_23" function="internal">
        <lane id=":J13_23_0" index="0" disallow="pedestrian" speed="9.26" length="14.34" shape="594.56,749.11 594.85,749.15 598.60,751.40 600.85,755.15 601.60,760.40"/>
    </edge>
    <edge id=":J13_c0" function="crossing" crossingEdges="v31 -v31">
        <lane id=":J13_c0_0" index="0" allow="pedestrian" speed="2.78" length="12.80" width="4.00" shape="606.40,758.40 593.60,758.40" outlineShape="606.40,760.40 593.60,760.40 589.60,756.40 589.60,758.40 591.60,760.40 593.60,760.40 589.60,756.40 610.40,756.40 609.18,756.51 608.18,756.84 607.40,757.40 606.84,758.18 606.51,759.18"/>
    </edge>
    <edge id=":J13_c1" function="crossing" crossingEdges="-h14 h14">
        <lane id=":J13_c1_0" index="0" allow="pedestrian" speed="2.78" length="12.80" width="4.00" shape="608.40,743.60 608.40,756.40" outlineShape="610.40,743.60 610.40,756.40 606.40,760.40 608.40,760.40 610.40,758.40 610.40,756.40 606.40,760.40 606.40,739.60 606.51,740.82 606.84,741.82 607.40,742.60 608.18,743.16 609.18,743.49"/>
    </edge>
    <edge id=":J13_c2" function="crossing" crossingEdges="-v32 v32">
        <lane id=":J13_c2_0" index="0" allow="pedestrian" speed="2.78" length="12.80" width="4.00" shape="593.60,741.60 606.40,741.60" outlineShape="593.60,739.60 606.40,739.60 610.40,743.60 610.40,741.60 608.40,739.60 606.40,739.60 610.40,743.60 589.60,743.60 590.82,743.49 591.82,743.16 592.60,742.60 593.16,741.82 593.49,740.82"/>
    </edge>
    <edge id=":J13_c3" function="crossing" crossingEdges="h13 -h13">
        <lane id=":J13_c3_0" index="0" allow="pedestrian" speed="2.78" length="12.80" width="4.00" shape="591.60,756.40 591.60,743.60" outlineShape="589.60,756.40 589.60,743.60 593.60,739.60 591.60,739.60 589.60,741.60 589.60,743.60 593.60,739.60 593.60,760.40 593.49,759.18 593.16,758.18 592.60,757.40 591.82,756.84 590.82,756.51"/>
    </edge>
    <edge id=":J13_w0" function="walkingarea">
        <lane id=":J13_w0_0" index="0" allow="pedestrian" speed="2.78" length="3.30" width="4.00" shape="589.60,756.40 589.60,758.40 591.60,760.40 593.60,760.40 593.49,759.18 593.16,758.18 592.60,757.40 591.82,756.84 590.82,756.51"/>
    </edge>
    <edge id=":J13_w1" function="walkingarea">
        <lane id=":J13_w1_0" index="0" allow="pedestrian" speed="2.78" length="3.30" width="4.00" shape="606.40,760.40 608.40,760.40 610.40,758.40 610.40,756.40 609.18,756.51 608.18,756.84 607.40,757.40 606.84,758.18 606.51,759.18"/>
    </edge>
    <edge id=":J13_w2" function="walkingarea">
        <lane id=":J13_w2_0" index="0" allow="pedestrian" speed="2.78" length="3.30" width="4.00" shape="610.40,743.60 610.40,741.60 608.40,739.60 606.40,739.60 606.51,740.82 606.84,741.82 607.40,742.60 608.18,743.16 609.18,743.49"/>
    </edge>
    <edge id=":J13_w3" function="walkingarea">
        <lane id=":J13_w3_0" index="0" allow="pedestrian" speed="2.78" length="3.30" width="4.00" shape="593.60,739.60 591.60,739.60 589.60,741.60 589.60,743.60 590.82,743.49 591.82,743.16 592.60,742.60 593.16,741.82 593.49,740.82"/>
    </edge>
    <edge id=":J14_0" function="internal">
        <lane id=":J14_0_0" index="0" disallow="pedestrian" speed="6.51" length="4.75" shape="745.20,760.40 744.85,757.95 743.80,756.20 743.60,756.08"/>
    </edge>
    <edge id=":J14_1" function="internal">
        <lane id=":J14_1_0" index="0" disallow="pedestrian" speed="13.89" length="20.80" shape="745.20,760.40 745.20,739.60"/>
        <lane id=":J14_1_1" index="1" disallow="pedestrian" speed="13.89" length="20.80" shape="748.40,760.40 748.40,739.60"/>
    </edge>
    <edge id=":J14_3" function="internal">
        <lane id=":J14_3_0" index="0" disallow="pedestrian" speed="9.26" length="5.01" shape="748.40,760.40 749.11,755.44"/>
    </edge>
    <edge id=":J14_16" function="internal">
        <lane id=":J14_16_0" index="0" disallow="pedestrian" speed="6.51" length="4.28" shape="743.60,756.08 742.05,755.15 739.60,754.80"/>
    </edge>
    <edge id=":J14_17" function="internal">
        <lane id=":J14_17_0" index="0" disallow="pedestrian" speed="9.26" length="14.34" shape="749.11,755.44 749.15,755.15 751.40,751.40 755.15,749.15 760.40,748.40"/>
    </edge>
    <edge id=":J14_4" function="internal">
        <lane id=":J14_4_0" index="0" disallow="pedestrian" speed="6.51" length="4.75" shape="760.40,754.80 757.95,755.15 756.20,756.20 756.08,756.40"/>
    </edge>
    <edge id=":J14_5" function="internal">
        <lane id=":J14_5_0" index="0" disallow="pedestrian" speed="13.89" length="20.80" shape="760.40,754.80 739.60,754.80"/>
        <lane id=":J14_5_1" index="1" disallow="pedestrian" speed="13.89" length="20.80" shape="760.40,751.60 739.60,751.60"/>
    </edge>
    <edge id=":J14_7" function="internal">
        <lane id=":J14_7_0" index="0" disallow="pedestrian" speed="9.26" length="5.01" shape="760.40,751.60 755.44,750.89"/>
    </edge>
    <edge id=":J14_18" function="internal">
        <lane id=":J14_18_0" index="0" disallow="pedestrian" speed="6.51" length="4.28" shape="756.08,756.40 755.15,757.95 754.80,760.40"/>
    </edge>
    <edge id=":J14_19" function="internal">
        <lane id=":J14_19_0" index="0" disallow="pedestrian" speed="9.26" length="14.34" shape="755.44,750.89 755.15,750.85 751.40,748.60 749.15,744.85 748.40,739.60"/>
    </edge>
    <edge id=":J14_8" function="internal">
        <lane id=":J14_8_0" index="0" disallow="pedestrian" speed="6.51" length="4.75" shape="754.80,739.60 755.15,742.05 756.20,743.80 756.40,743.92"/>
    </edge>
    <edge id=":J14_9" function="internal">
        <lane id=":J14_9_0" index="0" disallow="pedestrian" speed="13.89" length="20.80" shape="754.80,739.60 754.80,760.40"/>
        <lane id=":J14_9_1" index="1" disallow="pedestrian" speed="13.89" length="20.80" shape="751.60,739.60 751.60,760.40"/>
    </edge>
    <edge id=":J14_11" function="internal">
        <lane id=":J14_11_0" index="0" disallow="pedestrian" speed="9.26" length="5.01" shape="751.60,739.60 750.89,744.56"/>
    </edge>
    <edge id=":J14_20" function="internal">
        <lane id=":J14_20_0" index="0" disallow="pedestrian" speed="6.51" length="4.28" shape="756.40,743.92 757.95,744.85 760.40,745.20"/>
    </edge>
    <edge id=":J14_21" function="internal">
        <lane id=":J14_21_0" index="0" disallow="pedestrian" speed="9.26" length="14.34" shape="750.89,744.56 750.85,744.85 748.60,748.60 744.85,750.85 739.60,751.60"/>
    </edge>
    <edge id=":J14_12" function="internal">
        <lane id=":J14_12_0" index="0" disallow="pedestrian" speed="6.51" length="4.75" shape="739.60,745.20 742.05,744.85 743.80,743.80 743.92,743.60"/>
    </edge>
    <edge id=":J14_13" function="internal">
        <lane id=":J14_13_0" index="0" disallow="pedestrian" speed="13.89" length="20.80" shape="739.60,745.20 760.40,745.20"/>
        <lane id=":J14_13_1" index="1" disallow="pedestrian" speed="13.89" length="20.80" shape="739.60,748.40 760.40,748.40"/>
    </edge>
    <edge id=":J14_15" function="internal">
        <lane id=":J14_15_0" index="0" disallow="pedestrian" speed="9.26" length="5.01" shape="739.60,748.40 744.56,749.11"/>
    </edge>
    <edge id=":J14_22" function="internal">
        <lane id=":J14_22_0" index="0" disallow="pedestrian" speed="6.51" length="4.28" shape="743.92,743.60 744.85,742.05 745.20,739.60"/>
    </edge>
    <edge id=":J14_23" function="internal">
        <lane id=":J14_23_0" index="0" disallow="pedestrian" speed="9.26" length="14.34" shape="744.56,749.11 744.85,749.15 748.60,751.40 750.85,755.15 751.60,760.40"/>
    </edge>
    <edge id=":J14_c0" function="crossing" crossingEdges="v41 -v41">
        <lane id=":J14_c0_0" index="0" allow="pedestrian" speed="2.78" length="12.80" width="4.00" shape="756.40,758.40 743.60,758.40" outlineShape="756.40,760.40 743.60,760.40 739.60,756.40 739.60,758.40 741.60,760.40 743.60,760.40 739.60,756.40 760.40,756.40 759.18,756.51 758.18,756.84 757.40,757.40 756.84,758.18 756.51,759.18"/>
    </edge>
    <edge id=":J14_c1" function="crossing" crossingEdges="-h15 h15">
        <lane id=":J14_c1_0" index="0" allow="pedestrian" speed="2.78" length="12.80" width="4.00" shape="758.40,743.60 758.40,756.40" outlineShape="760.40,743.60 760.40,756.40 756.40,760.40 758.40,760.40 760.40,758.40 760.40,756.40 756.40,760.40 756.40,739.60 756.51,740.82 756.84,741.82 757.40,742.60 758.18,743.16 759.18,743.49"/>
    </edge>
    <edge id=":J14_c2" function="crossing" crossingEdges="-v42 v42">
        <lane id=":J14_c2_0" index="0" allow="pedestrian" speed="2.78" length="12.80" width="4.00" shape="743.60,741.60 756.40,741.60" outlineShape="743.60,739.60 756.40,739.60 760.40,743.60 760.40,741.60 758.40,739.60 756.40,739.60 760.40,743.60 739.60,743.60 740.82,743.49 741.82,743.16 742.60,742.60 743.16,741.82 743.49,740.82"/>
    </edge>
    <edge id=":J14_c3" function="crossing" crossingEdges="h14 -h14">