<?xml version="1.0" encoding="UTF-8"?>
<additional>
  <tlLogic id="J11" type="static" programID="0" offset="0">
    <phase duration="37" state="gGGgrrrrgGGgrrrrrrrr"/>
    <phase duration="37" state="rrrrgGGgrrrrgGGgrrrr"/>
    <phase duration="15" state="rrrrrrrrrrrrrrrrGGGG"/>
  </tlLogic>
  <tlLogic id="J12" type="static" programID="0" offset="0">
    <phase duration="37" state="gGGgrrrrgGGgrrrrrrrr"/>
    <phase duration="37" state="rrrrgGGgrrrrgGGgrrrr"/>
    <phase duration="15" state="rrrrrrrrrrrrrrrrGGGG"/>
  </tlLogic>
  <tlLogic id="J13" type="static" programID="0" offset="0">
    <phase duration="37" state="gGGgrrrrgGGgrrrrrrrr"/>
    <phase duration="37" state="rrrrgGGgrrrrgGGgrrrr"/>
    <phase duration="15" state="rrrrrrrrrrrrrrrrGGGG"/>
  </tlLogic>
  <tlLogic id="J14" type="static" programID="0" offset="0">
    <phase duration="37" state="gGGgrrrrgGGgrrrrrrrr"/>
    <phase duration="37" state="rrrrgGGgrrrrgGGgrrrr"/>
    <phase duration="15" state="rrrrrrrrrrrrrrrrGGGG"/>
  </tlLogic>
  <tlLogic id="J21" type="static" programID="0" offset="0">
    <phase duration="37" state="gGGgrrrrgGGgrrrrrrrr"/>
    <phase duration="37" state="rrrrgGGgrrrrgGGgrrrr"/>
    <phase duration="15" state="rrrrrrrrrrrrrrrrGGGG"/>
  </tlLogic>
  <tlLogic id="J22" type="static" programID="0" offset="0">
    <phase duration="37" state="gGGgrrrrgGGgrrrrrrrr"/>
    <phase duration="37" state="rrrrgGGgrrrrgGGgrrrr"/>
    <phase duration="15" state="rrrrrrrrrrrrrrrrGGGG"/>
  </tlLogic>
  <tlLogic id="J23" type="static" programID="0" offset="0">
    <phase duration="37" state="gGGgrrrrgGGgrrrrrrrr"/>
    <phase duration="37" state="rrrrgGGgrrrrgGGgrrrr"/>
    <phase duration="15" state="rrrrrrrrrrrrrrrrGGGG"/>
  </tlLogic>
  <tlLogic id="J24" type="static" programID="0" offset="0">
    <phase duration="37" state="gGGgrrrrgGGgrrrrrrrr"/>
    <phase duration="37" state="rrrrgGGgrrrrgGGgrrrr"/>
    <phase duration="15" state="rrrrrrrrrrrrrrrrGGGG"/>
  </tlLogic>
  <tlLogic id="J31" type="static" programID="0" offset="0">
    <phase duration="37" state="gGGgrrrrgGGgrrrrrrrr"/>
    <phase duration="37" state="rrrrgGGgrrrrgGGgrrrr"/>
    <phase duration="15" state="rrrrrrrrrrrrrrrrGGGG"/>
  </tlLogic>
  <tlLogic id="J32" type="static" programID="0" offset="0">
    <phase duration="37" state="gGGgrrrrgGGgrrrrrrrr"/>
    <phase duration="37" state="rrrrgGGgrrrrgGGgrrrr"/>
    <phase duration="15" state="rrrrrrrrrrrrrrrrGGGG"/>
  </tlLogic>
  <tlLogic id="J33" type="static" programID="0" offset="0">
    <phase duration="37" state="gGGgrrrrgGGgrrrrrrrr"/>
    <phase duration="37" state="rrrrgGGgrrrrgGGgrrrr"/>
    <phase duration="15" state="rrrrrrrrrrrrrrrrGGGG"/>
  </tlLogic>
  <tlLogic id="J34" type="static" programID="0" offset="0">
    <phase duration="37" state="gGGgrrrrgGGgrrrrrrrr"/>
    <phase duration="37" state="rrrrgGGgrrrrgGGgrrrr"/>
    <phase duration="15" state="rrrrrrrrrrrrrrrrGGGG"/>
  </tlLogic>
  <tlLogic id="J41" type="static" programID="0" offset="0">
    <phase duration="37" state="gGGgrrrrgGGgrrrrrrrr"/>
    <phase duration="37" state="rrrrgGGgrrrrgGGgrrrr"/>
    <phase duration="15" state="rrrrrrrrrrrrrrrrGGGG"/>
  </tlLogic>
  <tlLogic id="J42" type="static" programID="0" offset="0">
    <phase duration="37" state="gGGgrrrrgGGgrrrrrrrr"/>
    <phase duration="37" state="rrrrgGGgrrrrgGGgrrrr"/>
    <phase duration="15" state="rrrrrrrrrrrrrrrrGGGG"/>
  </tlLogic>
  <tlLogic id="J43" type="static" programID="0" offset="0">
    <phase duration="37" state="gGGgrrrrgGGgrrrrrrrr"/>
    <phase duration="37" state="rrrrgGGgrrrrgGGgrrrr"/>
    <phase duration="15" state="rrrrrrrrrrrrrrrrGGGG"/>
  </tlLogic>
  <tlLogic id="J44" type="static" programID="0" offset="0">
    <phase duration="37" state="gGGgrrrrgGGgrrrrrrrr"/>
    <phase duration="37" state="rrrrgGGgrrrrgGGgrrrr"/>
    <phase duration="15" state="rrrrrrrrrrrrrrrrGGGG"/>
  </tlLogic>
</additional>
