<?xml version="1.0" encoding="UTF-8"?>
<edges>
  <edge id="h11" from="J11" to="W1" priority="1" numLanes="2" speed="13.89" sidewalkWidth="2.0"/>
  <edge id="-h11" from="W1" to="J11" priority="1" numLanes="2" speed="13.89" sidewalkWidth="2.0"/>
  <edge id="h12" from="J12" to="J11" priority="1" numLanes="2" speed="13.89" sidewalkWidth="2.0"/>
  <edge id="-h12" from="J11" to="J12" priority="1" numLanes="2" speed="13.89" sidewalkWidth="2.0"/>
  <edge id="h13" from="J13" to="J12" priority="1" numLanes="2" speed="13.89" sidewalkWidth="2.0"/>
  <edge id="-h13" from="J12" to="J13" priority="1" numLanes="2" speed="13.89" sidewalkWidth="2.0"/>
  <edge id="h14" from="J14" to="J13" priority="1" numLanes="2" speed="13.89" sidewalkWidth="2.0"/>
  <edge id="-h14" from="J13" to="J14" priority="1" numLanes="2" speed="13.89" sidewalkWidth="2.0"/>
  <edge id="h15" from="E1" to="J14" priority="1" numLanes="2" speed="13.89" sidewalkWidth="2.0"/>
  <edge id="-h15" from="J14" to="E1" priority="1" numLanes="2" speed="13.89" sidewalkWidth="2.0"/>
  <edge id="h21" from="J21" to="W2" priority="1" numLanes="2" speed="13.89" sidewalkWidth="2.0"/>
  <edge id="-h21" from="W2" to="J21" priority="1" numLanes="2" speed="13.89" sidewalkWidth="2.0"/>
  <edge id="h22" from="J22" to="J21" priority="1" numLanes="2" speed="13.89" sidewalkWidth="2.0"/>
  <edge id="-h22" from="J21" to="J22" priority="1" numLanes="2" speed="13.89" sidewalkWidth="2.0"/>
  <edge id="h23" from="J23" to="J22" priority="1" numLanes="2" speed="13.89" sidewalkWidth="2.0"/>
  <edge id="-h23" from="J22" to="J23" priority="1" numLanes="2" speed="13.89" sidewalkWidth="2.0"/>
  <edge id="h24" from="J24" to="J23" priority="1" numLanes="2" speed="13.89" sidewalkWidth="2.0"/>
  <edge id="-h24" from="J23" to="J24" priority="1" numLanes="2" speed="13.89" sidewalkWidth="2.0"/>
  <edge id="h25" from="E2" to="J24" priority="1" numLanes="2" speed="13.89" sidewalkWidth="2.0"/>
  <edge id="-h25" from="J24" to="E2" priority="1" numLanes="2" speed="13.89" sidewalkWidth="2.0"/>
  <edge id="h31" from="J31" to="W3" priority="1" numLanes="2" speed="13.89" sidewalkWidth="2.0"/>
  <edge id="-h31" from="W3" to="J31" priority="1" numLanes="2" speed="13.89" sidewalkWidth="2.0"/>
  <edge id="h32" from="J32" to="J31" priority="1" numLanes="2" speed="13.89" sidewalkWidth="2.0"/>
  <edge id="-h32" from="J31" to="J32" priority="1" numLanes="2" speed="13.89" sidewalkWidth="2.0"/>
  <edge id="h33" from="J33" to="J32" priority="1" numLanes="2" speed="13.89" sidewalkWidth="2.0"/>
  <edge id="-h33" from="J32" to="J33" priority="1" numLanes="2" speed="13.89" sidewalkWidth="2.0"/>
  <edge id="h34" from="J34" to="J33" priority="1" numLanes="2" speed="13.89" sidewalkWidth="2.0"/>
  <edge id="-h34" from="J33" to="J34" priority="1" numLanes="2" speed="13.89" sidewalkWidth="2.0"/>
  <edge id="h35" from="E3" to="J34" priority="1" numLanes="2" speed="13.89" sidewalkWidth="2.0"/>
  <edge id="-h35" from="J34" to="E3" priority="1" numLanes="2" speed="13.89" sidewalkWidth="2.0"/>
  <edge id="h41" from="J41" to="W4" priority="1" numLanes="2" speed="13.89" sidewalkWidth="2.0"/>
  <edge id="-h41" from="W4" to="J41" priority="1" numLanes="2" speed="13.89" sidewalkWidth="2.0"/>
  <edge id="h42" from="J42" to="J41" priority="1" numLanes="2" speed="13.89" sidewalkWidth="2.0"/>
  <edge id="-h42" from="J41" to="J42" priority="1" numLanes="2" speed="13.89" sidewalkWidth="2.0"/>
  <edge id="h43" from="J43" to="J42" priority="1" numLanes="2" speed="13.89" sidewalkWidth="2.0"/>
  <edge id="-h43" from="J42" to="J43" priority="1" numLanes="2" speed="13.89" sidewalkWidth="2.0"/>
  <edge id="h44" from="J44" to="J43" priority="1" numLanes="2" speed="13.89" sidewalkWidth="2.0"/>
  <edge id="-h44" from="J43" to="J44" priority="1" numLanes="2" speed="13.89" sidewalkWidth="2.0"/>
  <edge id="h45" from="E4" to="J44" priority="1" numLanes="2" speed="13.89" sidewalkWidth="2.0"/>
  <edge id="-h45" from="J44" to="E4" priority="1" numLanes="2" speed="13.89" sidewalkWidth="2.0"/>
  <edge id="v11" from="J11" to="N1" priority="1" numLanes="2" speed="13.89" sidewalkWidth="2.0"/>
  <edge id="-v11" from="N1" to="J11" priority="1" numLanes="2" speed="13.89" sidewalkWidth="2.0"/>
  <edge id="v12" from="J21" to="J11" priority="1" numLanes="2" speed="13.89" sidewalkWidth="2.0"/>
  <edge id="-v12" from="J11" to="J21" priority="1" numLanes="2" speed="13.89" sidewalkWidth="2.0"/>
  <edge id="v13" from="J31" to="J21" priority="1" numLanes="2" speed="13.89" sidewalkWidth="2.0"/>
  <edge id="-v13" from="J21" to="J31" priority="1" numLanes="2" speed="13.89" sidewalkWidth="2.0"/>
  <edge id="v14" from="J41" to="J31" priority="1" numLanes="2" speed="13.89" sidewalkWidth="2.0"/>
  <edge id="-v14" from="J31" to="J41" priority="1" numLanes="2" speed="13.89" sidewalkWidth="2.0"/>
  <edge id="v15" from="S1" to="J41" priority="1" numLanes="2" speed="13.89" sidewalkWidth="2.0"/>
  <edge id="-v15" from="J41" to="S1" priority="1" numLanes="2" speed="13.89" sidewalkWidth="2.0"/>
  <edge id="v21" from="J12" to="N2" priority="1" numLanes="2" speed="13.89" sidewalkWidth="2.0"/>
  <edge id="-v21" from="N2" to="J12" priority="1" numLanes="2" speed="13.89" sidewalkWidth="2.0"/>
  <edge id="v22" from="J22" to="J12" priority="1" numLanes="2" speed="13.89" sidewalkWidth="2.0"/>
  <edge id="-v22" from="J12" to="J22" priority="1" numLanes="2" speed="13.89" sidewalkWidth="2.0"/>
  <edge id="v23" from="J32" to="J22" priority="1" numLanes="2" speed="13.89" sidewalkWidth="2.0"/>
  <edge id="-v23" from="J22" to="J32" priority="1" numLanes="2" speed="13.89" sidewalkWidth="2.0"/>
  <edge id="v24" from="J42" to="J32" priority="1" numLanes="2" speed="13.89" sidewalkWidth="2.0"/>
  <edge id="-v24" from="J32" to="J42" priority="1" numLanes="2" speed="13.89" sidewalkWidth="2.0"/>
  <edge id="v25" from="S2" to="J42" priority="1" numLanes="2" speed="13.89" sidewalkWidth="2.0"/>
  <edge id="-v25" from="J42" to="S2" priority="1" numLanes="2" speed="13.89" sidewalkWidth="2.0"/>
  <edge id="v31" from="J13" to="N3" priority="1" numLanes="2" speed="13.89" sidewalkWidth="2.0"/>
  <edge id="-v31" from="N3" to="J13" priority="1" numLanes="2" speed="13.89" sidewalkWidth="2.0"/>
  <edge id="v32" from="J23" to="J13" priority="1" numLanes="2" speed="13.89" sidewalkWidth="2.0"/>
  <edge id="-v32" from="J13" to="J23" priority="1" numLanes="2" speed="13.89" sidewalkWidth="2.0"/>
  <edge id="v33" from="J33" to="J23" priority="1" numLanes="2" speed="13.89" sidewalkWidth="2.0"/>
  <edge id="-v33" from="J23" to="J33" priority="1" numLanes="2" speed="13.89" sidewalkWidth="2.0"/>
  <edge id="v34" from="J43" to="J33" priority="1" numLanes="2" speed="13.89" sidewalkWidth="2.0"/>
  <edge id="-v34" from="J33" to="J43" priority="1" numLanes="2" speed="13.89" sidewalkWidth="2.0"/>
  <edge id="v35" from="S3" to="J43" priority="1" numLanes="2" speed="13.89" sidewalkWidth="2.0"/>
  <edge id="-v35" from="J43" to="S3" priority="1" numLanes="2" speed="13.89" sidewalkWidth="2.0"/>
  <edge id="v41" from="J14" to="N4" priority="1" numLanes="2" speed="13.89" sidewalkWidth="2.0"/>
  <edge id="-v41" from="N4" to="J14" priority="1" numLanes="2" speed="13.89" sidewalkWidth="2.0"/>
  <edge id="v42" from="J24" to="J14" priority="1" numLanes="2" speed="13.89" sidewalkWidth="2.0"/>
  <edge id="-v42" from="J14" to="J24" priority="1" numLanes="2" speed="13.89" sidewalkWidth="2.0"/>
  <edge id="v43" from="J34" to="J24" priority="1" numLanes="2" speed="13.89" sidewalkWidth="2.0"/>
  <edge id="-v43" from="J24" to="J34" priority="1" numLanes="2" speed="13.89" sidewalkWidth="2.0"/>
  <edge id="v44" from="J44" to="J34" priority="1" numLanes="2" speed="13.89" sidewalkWidth="2.0"/>
  <edge id="-v44" from="J34" to="J44" priority="1" numLanes="2" speed="13.89" sidewalkWidth="2.0"/>
  <edge id="v45" from="S4" to="J44" priority="1" numLanes="2" speed="13.89" sidewalkWidth="2.0"/>
  <edge id="-v45" from="J44" to="S4" priority="1" numLanes="2" speed="13.89" sidewalkWidth="2.0"/>
</edges>
