<?xml version="1.0" encoding="UTF-8"?>

<!-- generated on 2026-06-02T10:59:40.239003+00:00 by Eclipse SUMO netconvert 1.26.0
<netconvertConfiguration xmlns:xsi="http://www.w3.org/2001/XMLSchema-instance" xsi:noNamespaceSchemaLocation="http://sumo.dlr.de/xsd/netconvertConfiguration.xsd">

    <input>
        <node-files value="4x4.nod.xml"/>
        <edge-files value="4x4.edg.xml"/>
        <tllogic-files value="4x4_fixed_yellow.add.xml"/>
    </input>

    <output>
        <output-file value="4x4_fixed_yellow.net.xml"/>
    </output>

</netconvertConfiguration>
-->

<net version="1.20" junctionCornerDetail="5" limitTurnSpeed="5.50" xmlns:xsi="http://www.w3.org/2001/XMLSchema-instance" xsi:noNamespaceSchemaLocation="http://sumo.dlr.de/xsd/net_file.xsd">

    <location netOffset="-150.00,-150.00" convBoundary="0.00,0.00,750.00,750.00" origBoundary="150.00,150.00,900.00,900.00" projParameter="!"/>

    <edge id=":E1_0" function="internal">
        <lane id=":E1_0_0" index="0" disallow="pedestrian" speed="3.65" length="4.67" shape="750.00,598.40 751.20,599.20 751.60,600.00 751.20,600.80 750.00,601.60"/>
    </edge>
    <edge id=":E2_0" function="internal">
        <lane id=":E2_0_0" index="0" disallow="pedestrian" speed="3.65" length="4.67" shape="750.00,448.40 751.20,449.20 751.60,450.00 751.20,450.80 750.00,451.60"/>
    </edge>
    <edge id=":E3_0" function="internal">
        <lane id=":E3_0_0" index="0" disallow="pedestrian" speed="3.65" length="4.67" shape="750.00,298.40 751.20,299.20 751.60,300.00 751.20,300.80 750.00,301.60"/>
    </edge>
    <edge id=":E4_0" function="internal">
        <lane id=":E4_0_0" index="0" disallow="pedestrian" speed="3.65" length="4.67" shape="750.00,148.40 751.20,149.20 751.60,150.00 751.20,150.80 750.00,151.60"/>
    </edge>
    <edge id=":J11_0" function="internal">
        <lane id=":J11_0_0" index="0" disallow="pedestrian" speed="6.51" length="9.03" shape="145.20,610.40 144.85,607.95 143.80,606.20 142.05,605.15 139.60,604.80"/>
    </edge>
    <edge id=":J11_1" function="internal">
        <lane id=":J11_1_0" index="0" disallow="pedestrian" speed="13.89" length="20.80" shape="145.20,610.40 145.20,589.60"/>
        <lane id=":J11_1_1" index="1" disallow="pedestrian" speed="13.89" length="20.80" shape="148.40,610.40 148.40,589.60"/>
    </edge>
    <edge id=":J11_3" function="internal">
        <lane id=":J11_3_0" index="0" disallow="pedestrian" speed="9.26" length="5.01" shape="148.40,610.40 149.11,605.44"/>
    </edge>
    <edge id=":J11_4" function="internal">
        <lane id=":J11_4_0" index="0" disallow="pedestrian" speed="3.65" length="1.44" shape="148.40,610.40 149.20,609.20"/>
    </edge>
    <edge id=":J11_20" function="internal">
        <lane id=":J11_20_0" index="0" disallow="pedestrian" speed="9.26" length="14.34" shape="149.11,605.44 149.15,605.15 151.40,601.40 155.15,599.15 160.40,598.40"/>
    </edge>
    <edge id=":J11_21" function="internal">
        <lane id=":J11_21_0" index="0" disallow="pedestrian" speed="3.65" length="3.23" shape="149.20,609.20 150.00,608.80 150.80,609.20 151.60,610.40"/>
    </edge>
    <edge id=":J11_5" function="internal">
        <lane id=":J11_5_0" index="0" disallow="pedestrian" speed="6.51" length="9.03" shape="160.40,604.80 157.95,605.15 156.20,606.20 155.15,607.95 154.80,610.40"/>
    </edge>
    <edge id=":J11_6" function="internal">
        <lane id=":J11_6_0" index="0" disallow="pedestrian" speed="13.89" length="20.80" shape="160.40,604.80 139.60,604.80"/>
        <lane id=":J11_6_1" index="1" disallow="pedestrian" speed="13.89" length="20.80" shape="160.40,601.60 139.60,601.60"/>
    </edge>
    <edge id=":J11_8" function="internal">
        <lane id=":J11_8_0" index="0" disallow="pedestrian" speed="9.26" length="2.51" shape="160.40,601.60 157.91,601.24"/>
    </edge>
    <edge id=":J11_9" function="internal">
        <lane id=":J11_9_0" index="0" disallow="pedestrian" speed="3.65" length="4.67" shape="160.40,601.60 159.20,600.80 158.80,600.00 159.20,599.20 160.40,598.40"/>
    </edge>
    <edge id=":J11_22" function="internal">
        <lane id=":J11_22_0" index="0" disallow="pedestrian" speed="9.26" length="16.84" shape="157.91,601.24 155.15,600.85 151.40,598.60 149.15,594.85 148.40,589.60"/>
    </edge>
    <edge id=":J11_10" function="internal">
        <lane id=":J11_10_0" index="0" disallow="pedestrian" speed="6.51" length="9.03" shape="154.80,589.60 155.15,592.05 156.20,593.80 157.95,594.85 160.40,595.20"/>
    </edge>
    <edge id=":J11_11" function="internal">
        <lane id=":J11_11_0" index="0" disallow="pedestrian" speed="13.89" length="20.80" shape="154.80,589.60 154.80,610.40"/>
        <lane id=":J11_11_1" index="1" disallow="pedestrian" speed="13.89" length="20.80" shape="151.60,589.60 151.60,610.40"/>
    </edge>
    <edge id=":J11_13" function="internal">
        <lane id=":J11_13_0" index="0" disallow="pedestrian" speed="9.26" length="19.35" shape="151.60,589.60 150.85,594.85 148.60,598.60 144.85,600.85 139.60,601.60"/>
    </edge>
    <edge id=":J11_14" function="internal">
        <lane id=":J11_14_0" index="0" disallow="pedestrian" speed="3.65" length="4.67" shape="151.60,589.60 150.80,590.80 150.00,591.20 149.20,590.80 148.40,589.60"/>
    </edge>
    <edge id=":J11_15" function="internal">
        <lane id=":J11_15_0" index="0" disallow="pedestrian" speed="6.51" length="9.03" shape="139.60,595.20 142.05,594.85 143.80,593.80 144.85,592.05 145.20,589.60"/>
    </edge>
    <edge id=":J11_16" function="internal">
        <lane id=":J11_16_0" index="0" disallow="pedestrian" speed="13.89" length="20.80" shape="139.60,595.20 160.40,595.20"/>
        <lane id=":J11_16_1" index="1" disallow="pedestrian" speed="13.89" length="20.80" shape="139.60,598.40 160.40,598.40"/>
    </edge>
    <edge id=":J11_18" function="internal">
        <lane id=":J11_18_0" index="0" disallow="pedestrian" speed="9.26" length="19.35" shape="139.60,598.40 144.85,599.15 148.60,601.40 150.85,605.15 151.60,610.40"/>
    </edge>
    <edge id=":J11_19" function="internal">
        <lane id=":J11_19_0" index="0" disallow="pedestrian" speed="3.65" length="4.67" shape="139.60,598.40 140.80,599.20 141.20,600.00 140.80,600.80 139.60,601.60"/>
    </edge>
    <edge id=":J12_0" function="internal">
        <lane id=":J12_0_0" index="0" disallow="pedestrian" speed="6.51" length="9.03" shape="295.20,610.40 294.85,607.95 293.80,606.20 292.05,605.15 289.60,604.80"/>
    </edge>
    <edge id=":J12_1" function="internal">
        <lane id=":J12_1_0" index="0" disallow="pedestrian" speed="13.89" length="20.80" shape="295.20,610.40 295.20,589.60"/>
        <lane id=":J12_1_1" index="1" disallow="pedestrian" speed="13.89" length="20.80" shape="298.40,610.40 298.40,589.60"/>
    </edge>
    <edge id=":J12_3" function="internal">
        <lane id=":J12_3_0" index="0" disallow="pedestrian" speed="9.26" length="5.01" shape="298.40,610.40 299.11,605.44"/>
    </edge>
    <edge id=":J12_4" function="internal">
        <lane id=":J12_4_0" index="0" disallow="pedestrian" speed="3.65" length="1.44" shape="298.40,610.40 299.20,609.20"/>
    </edge>
    <edge id=":J12_20" function="internal">
        <lane id=":J12_20_0" index="0" disallow="pedestrian" speed="9.26" length="14.34" shape="299.11,605.44 299.15,605.15 301.40,601.40 305.15,599.15 310.40,598.40"/>
    </edge>
    <edge id=":J12_21" function="internal">
        <lane id=":J12_21_0" index="0" disallow="pedestrian" speed="3.65" length="3.23" shape="299.20,609.20 300.00,608.80 300.80,609.20 301.60,610.40"/>
    </edge>
    <edge id=":J12_5" function="internal">
        <lane id=":J12_5_0" index="0" disallow="pedestrian" speed="6.51" length="9.03" shape="310.40,604.80 307.95,605.15 306.20,606.20 305.15,607.95 304.80,610.40"/>
    </edge>
    <edge id=":J12_6" function="internal">
        <lane id=":J12_6_0" index="0" disallow="pedestrian" speed="13.89" length="20.80" shape="310.40,604.80 289.60,604.80"/>
        <lane id=":J12_6_1" index="1" disallow="pedestrian" speed="13.89" length="20.80" shape="310.40,601.60 289.60,601.60"/>
    </edge>
    <edge id=":J12_8" function="internal">
        <lane id=":J12_8_0" index="0" disallow="pedestrian" speed="9.26" length="2.51" shape="310.40,601.60 307.91,601.24"/>
    </edge>
    <edge id=":J12_9" function="internal">
        <lane id=":J12_9_0" index="0" disallow="pedestrian" speed="3.65" length="4.67" shape="310.40,601.60 309.20,600.80 308.80,600.00 309.20,599.20 310.40,598.40"/>
    </edge>
    <edge id=":J12_22" function="internal">
        <lane id=":J12_22_0" index="0" disallow="pedestrian" speed="9.26" length="16.84" shape="307.91,601.24 305.15,600.85 301.40,598.60 299.15,594.85 298.40,589.60"/>
    </edge>
    <edge id=":J12_10" function="internal">
        <lane id=":J12_10_0" index="0" disallow="pedestrian" speed="6.51" length="9.03" shape="304.80,589.60 305.15,592.05 306.20,593.80 307.95,594.85 310.40,595.20"/>
    </edge>
    <edge id=":J12_11" function="internal">
        <lane id=":J12_11_0" index="0" disallow="pedestrian" speed="13.89" length="20.80" shape="304.80,589.60 304.80,610.40"/>
        <lane id=":J12_11_1" index="1" disallow="pedestrian" speed="13.89" length="20.80" shape="301.60,589.60 301.60,610.40"/>
    </edge>
    <edge id=":J12_13" function="internal">
        <lane id=":J12_13_0" index="0" disallow="pedestrian" speed="9.26" length="19.35" shape="301.60,589.60 300.85,594.85 298.60,598.60 294.85,600.85 289.60,601.60"/>
    </edge>
    <edge id=":J12_14" function="internal">
        <lane id=":J12_14_0" index="0" disallow="pedestrian" speed="3.65" length="4.67" shape="301.60,589.60 300.80,590.80 300.00,591.20 299.20,590.80 298.40,589.60"/>
    </edge>
    <edge id=":J12_15" function="internal">
        <lane id=":J12_15_0" index="0" disallow="pedestrian" speed="6.51" length="9.03" shape="289.60,595.20 292.05,594.85 293.80,593.80 294.85,592.05 295.20,589.60"/>
    </edge>
    <edge id=":J12_16" function="internal">
        <lane id=":J12_16_0" index="0" disallow="pedestrian" speed="13.89" length="20.80" shape="289.60,595.20 310.40,595.20"/>
        <lane id=":J12_16_1" index="1" disallow="pedestrian" speed="13.89" length="20.80" shape="289.60,598.40 310.40,598.40"/>
    </edge>
    <edge id=":J12_18" function="internal">
        <lane id=":J12_18_0" index="0" disallow="pedestrian" speed="9.26" length="19.35" shape="289.60,598.40 294.85,599.15 298.60,601.40 300.85,605.15 301.60,610.40"/>
    </edge>
    <edge id=":J12_19" function="internal">
        <lane id=":J12_19_0" index="0" disallow="pedestrian" speed="3.65" length="4.67" shape="289.60,598.40 290.80,599.20 291.20,600.00 290.80,600.80 289.60,601.60"/>
    </edge>
    <edge id=":J13_0" function="internal">
        <lane id=":J13_0_0" index="0" disallow="pedestrian" speed="6.51" length="9.03" shape="445.20,610.40 444.85,607.95 443.80,606.20 442.05,605.15 439.60,604.80"/>
    </edge>
    <edge id=":J13_1" function="internal">
        <lane id=":J13_1_0" index="0" disallow="pedestrian" speed="13.89" length="20.80" shape="445.20,610.40 445.20,589.60"/>
        <lane id=":J13_1_1" index="1" disallow="pedestrian" speed="13.89" length="20.80" shape="448.40,610.40 448.40,589.60"/>
    </edge>
    <edge id=":J13_3" function="internal">
        <lane id=":J13_3_0" index="0" disallow="pedestrian" speed="9.26" length="5.01" shape="448.40,610.40 449.11,605.44"/>
    </edge>
    <edge id=":J13_4" function="internal">
        <lane id=":J13_4_0" index="0" disallow="pedestrian" speed="3.65" length="1.44" shape="448.40,610.40 449.20,609.20"/>
    </edge>
    <edge id=":J13_20" function="internal">
        <lane id=":J13_20_0" index="0" disallow="pedestrian" speed="9.26" length="14.34" shape="449.11,605.44 449.15,605.15 451.40,601.40 455.15,599.15 460.40,598.40"/>
    </edge>
    <edge id=":J13_21" function="internal">
        <lane id=":J13_21_0" index="0" disallow="pedestrian" speed="3.65" length="3.23" shape="449.20,609.20 450.00,608.80 450.80,609.20 451.60,610.40"/>
    </edge>
    <edge id=":J13_5" function="internal">
        <lane id=":J13_5_0" index="0" disallow="pedestrian" speed="6.51" length="9.03" shape="460.40,604.80 457.95,605.15 456.20,606.20 455.15,607.95 454.80,610.40"/>
    </edge>
    <edge id=":J13_6" function="internal">
        <lane id=":J13_6_0" index="0" disallow="pedestrian" speed="13.89" length="20.80" shape="460.40,604.80 439.60,604.80"/>
        <lane id=":J13_6_1" index="1" disallow="pedestrian" speed="13.89" length="20.80" shape="460.40,601.60 439.60,601.60"/>
    </edge>
    <edge id=":J13_8" function="internal">
        <lane id=":J13_8_0" index="0" disallow="pedestrian" speed="9.26" length="2.51" shape="460.40,601.60 457.91,601.24"/>
    </edge>
    <edge id=":J13_9" function="internal">
        <lane id=":J13_9_0" index="0" disallow="pedestrian" speed="3.65" length="4.67" shape="460.40,601.60 459.20,600.80 458.80,600.00 459.20,599.20 460.40,598.40"/>
    </edge>
    <edge id=":J13_22" function="internal">
        <lane id=":J13_22_0" index="0" disallow="pedestrian" speed="9.26" length="16.84" shape="457.91,601.24 455.15,600.85 451.40,598.60 449.15,594.85 448.40,589.60"/>
    </edge>
    <edge id=":J13_10" function="internal">
        <lane id=":J13_10_0" index="0" disallow="pedestrian" speed="6.51" length="9.03" shape="454.80,589.60 455.15,592.05 456.20,593.80 457.95,594.85 460.40,595.20"/>
    </edge>
    <edge id=":J13_11" function="internal">
        <lane id=":J13_11_0" index="0" disallow="pedestrian" speed="13.89" length="20.80" shape="454.80,589.60 454.80,610.40"/>
        <lane id=":J13_11_1" index="1" disallow="pedestrian" speed="13.89" length="20.80" shape="451.60,589.60 451.60,610.40"/>
    </edge>
    <edge id=":J13_13" function="internal">
        <lane id=":J13_13_0" index="0" disallow="pedestrian" speed="9.26" length="19.35" shape="451.60,589.60 450.85,594.85 448.60,598.60 444.85,600.85 439.60,601.60"/>
    </edge>
    <edge id=":J13_14" function="internal">
        <lane id=":J13_14_0" index="0" disallow="pedestrian" speed="3.65" length="4.67" shape="451.60,589.60 450.80,590.80 450.00,591.20 449.20,590.80 448.40,589.60"/>
    </edge>
    <edge id=":J13_15" function="internal">
        <lane id=":J13_15_0" index="0" disallow="pedestrian" speed="6.51" length="9.03" shape="439.60,595.20 442.05,594.85 443.80,593.80 444.85,592.05 445.20,589.60"/>
    </edge>
    <edge id=":J13_16" function="internal">
        <lane id=":J13_16_0" index="0" disallow="pedestrian" speed="13.89" length="20.80" shape="439.60,595.20 460.40,595.20"/>
        <lane id=":J13_16_1" index="1" disallow="pedestrian" speed="13.89" length="20.80" shape="439.60,598.40 460.40,598.40"/>
    </edge>
    <edge id=":J13_18" function="internal">
        <lane id=":J13_18_0" index="0" disallow="pedestrian" speed="9.26" length="19.35" shape="439.60,598.40 444.85,599.15 448.60,601.40 450.85,605.15 451.60,610.40"/>
    </edge>
    <edge id=":J13_19" function="internal">
        <lane id=":J13_19_0" index="0" disallow="pedestrian" speed="3.65" length="4.67" shape="439.60,598.40 440.80,599.20 441.20,600.00 440.80,600.80 439.60,601.60"/>
    </edge>
    <edge id=":J14_0" function="internal">
        <lane id=":J14_0_0" index="0" disallow="pedestrian" speed="6.51" length="9.03" shape="595.20,610.40 594.85,607.95 593.80,606.20 592.05,605.15 589.60,604.80"/>
    </edge>
    <edge id=":J14_1" function="internal">
        <lane id=":J14_1_0" index="0" disallow="pedestrian" speed="13.89" length="20.80" shape="595.20,610.40 595.20,589.60"/>
        <lane id=":J14_1_1" index="1" disallow="pedestrian" speed="13.89" length="20.80" shape="598.40,610.40 598.40,589.60"/>
    </edge>
    <edge id=":J14_3" function="internal">
        <lane id=":J14_3_0" index="0" disallow="pedestrian" speed="9.26" length="5.01" shape="598.40,610.40 599.11,605.44"/>
    </edge>
    <edge id=":J14_4" function="internal">
        <lane id=":J14_4_0" index="0" disallow="pedestrian" speed="3.65" length="1.44" shape="598.40,610.40 599.20,609.20"/>
    </edge>
    <edge id=":J14_20" function="internal">
        <lane id=":J14_20_0" index="0" disallow="pedestrian" speed="9.26" length="14.34" shape="599.11,605.44 599.15,605.15 601.40,601.40 605.15,599.15 610.40,598.40"/>
    </edge>
    <edge id=":J14_21" function="internal">
        <lane id=":J14_21_0" index="0" disallow="pedestrian" speed="3.65" length="3.23" shape="599.20,609.20 600.00,608.80 600.80,609.20 601.60,610.40"/>
    </edge>
    <edge id=":J14_5" function="internal">
        <lane id=":J14_5_0" index="0" disallow="pedestrian" speed="6.51" length="9.03" shape="610.40,604.80 607.95,605.15 606.20,606.20 605.15,607.95 604.80,610.40"/>
    </edge>
    <edge id=":J14_6" function="internal">
        <lane id=":J14_6_0" index="0" disallow="pedestrian" speed="13.89" length="20.80" shape="610.40,604.80 589.60,604.80"/>
        <lane id=":J14_6_1" index="1" disallow="pedestrian" speed="13.89" length="20.80" shape="610.40,601.60 589.60,601.60"/>
    </edge>
    <edge id=":J14_8" function="internal">
        <lane id=":J14_8_0" index="0" disallow="pedestrian" speed="9.26" length="2.51" shape="610.40,601.60 607.91,601.24"/>
    </edge>
    <edge id=":J14_9" function="internal">
        <lane id=":J14_9_0" index="0" disallow="pedestrian" speed="3.65" length="4.67" shape="610.40,601.60 609.20,600.80 608.80,600.00 609.20,599.20 610.40,598.40"/>
    </edge>
    <edge id=":J14_22" function="internal">
        <lane id=":J14_22_0" index="0" disallow="pedestrian" speed="9.26" length="16.84" shape="607.91,601.24 605.15,600.85 601.40,598.60 599.15,594.85 598.40,589.60"/>
    </edge>
    <edge id=":J14_10" function="internal">
        <lane id=":J14_10_0" index="0" disallow="pedestrian" speed="6.51" length="9.03" shape="604.80,589.60 605.15,592.05 606.20,593.80 607.95,594.85 610.40,595.20"/>
    </edge>
    <edge id=":J14_11" function="internal">
        <lane id=":J14_11_0" index="0" disallow="pedestrian" speed="13.89" length="20.80" shape="604.80,589.60 604.80,610.40"/>
        <lane id=":J14_11_1" index="1" disallow="pedestrian" speed="13.89" length="20.80" shape="601.60,589.60 601.60,610.40"/>
    </edge>
    <edge id=":J14_13" function="internal">
        <lane id=":J14_13_0" index="0" disallow="pedestrian" speed="9.26" length="19.35" shape="601.60,589.60 600.85,594.85 598.60,598.60 594.85,600.85 589.60,601.60"/>
    </edge>
    <edge id=":J14_14" function="internal">
        <lane id=":J14_14_0" index="0" disallow="pedestrian" speed="3.65" length="4.67" shape="601.60,589.60 600.80,590.80 600.00,591.20 599.20,590.80 598.40,589.60"/>
    </edge>
    <edge id=":J14_15" function="internal">
        <lane id=":J14_15_0" index="0" disallow="pedestrian" speed="6.51" length="9.03" shape="589.60,595.20 592.05,594.85 593.80,593.80 594.85,592.05 595.20,589.60"/>
    </edge>
    <edge id=":J14_16" function="internal">
        <lane id=":J14_16_0" index="0" disallow="pedestrian" speed="13.89" length="20.80" shape="589.60,595.20 610.40,595.20"/>
        <lane id=":J14_16_1" index="1" disallow="pedestrian" speed="13.89" length="20.80" shape="589.60,598.40 610.40,598.40"/>
    </edge>
    <edge id=":J14_18" function="internal">
        <lane id=":J14_18_0" index="0" disallow="pedestrian" speed="9.26" length="19.35" shape="589.60,598.40 594.85,599.15 598.60,601.40 600.85,605.15 601.60,610.40"/>
    </edge>
    <edge id=":J14_19" function="internal">
        <lane id=":J14_19_0" index="0" disallow="pedestrian" speed="3.65" length="4.67" shape="589.60,598.40 590.80,599.20 591.20,600.00 590.80,600.80 589.60,601.60"/>
    </edge>
    <edge id=":J21_0" function="internal">
        <lane id=":J21_0_0" index="0" disallow="pedestrian" speed="6.51" length="9.03" shape="145.20,460.40 144.85,457.95 143.80,456.20 142.05,455.15 139.60,454.80"/>
    </edge>
    <edge id=":J21_1" function="internal">
        <lane id=":J21_1_0" index="0" disallow="pedestrian" speed="13.89" length="20.80" shape="145.20,460.40 145.20,439.60"/>
        <lane id=":J21_1_1" index="1" disallow="pedestrian" speed="13.89" length="20.80" shape="148.40,460.40 148.40,439.60"/>
    </edge>
    <edge id=":J21_3" function="internal">
        <lane id=":J21_3_0" index="0" disallow="pedestrian" speed="9.26" length="5.01" shape="148.40,460.40 149.11,455.44"/>
    </edge>
    <edge id=":J21_4" function="internal">
        <lane id=":J21_4_0" index="0" disallow="pedestrian" speed="3.65" length="1.44" shape="148.40,460.40 149.20,459.20"/>
    </edge>
    <edge id=":J21_20" function="internal">
        <lane id=":J21_20_0" index="0" disallow="pedestrian" speed="9.26" length="14.34" shape="149.11,455.44 149.15,455.15 151.40,451.40 155.15,449.15 160.40,448.40"/>
    </edge>
    <edge id=":J21_21" function="internal">
        <lane id=":J21_21_0" index="0" disallow="pedestrian" speed="3.65" length="3.23" shape="149.20,459.20 150.00,458.80 150.80,459.20 151.60,460.40"/>
    </edge>
    <edge id=":J21_5" function="internal">
        <lane id=":J21_5_0" index="0" disallow="pedestrian" speed="6.51" length="9.03" shape="160.40,454.80 157.95,455.15 156.20,456.20 155.15,457.95 154.80,460.40"/>
    </edge>
    <edge id=":J21_6" function="internal">
        <lane id=":J21_6_0" index="0" disallow="pedestrian" speed="13.89" length="20.80" shape="160.40,454.80 139.60,454.80"/>
        <lane id=":J21_6_1" index="1" disallow="pedestrian" speed="13.89" length="20.80" shape="160.40,451.60 139.60,451.60"/>
    </edge>
    <edge id=":J21_8" function="internal">
        <lane id=":J21_8_0" index="0" disallow="pedestrian" speed="9.26" length="2.51" shape="160.40,451.60 157.91,451.24"/>
    </edge>
    <edge id=":J21_9" function="internal">
        <lane id=":J21_9_0" index="0" disallow="pedestrian" speed="3.65" length="4.67" shape="160.40,451.60 159.20,450.80 158.80,450.00 159.20,449.20 160.40,448.40"/>
    </edge>
    <edge id=":J21_22" function="internal">
        <lane id=":J21_22_0" index="0" disallow="pedestrian" speed="9.26" length="16.84" shape="157.91,451.24 155.15,450.85 151.40,448.60 149.15,444.85 148.40,439.60"/>
    </edge>
    <edge id=":J21_10" function="internal">
        <lane id=":J21_10_0" index="0" disallow="pedestrian" speed="6.51" length="9.03" shape="154.80,439.60 155.15,442.05 156.20,443.80 157.95,444.85 160.40,445.20"/>
    </edge>
    <edge id=":J21_11" function="internal">
        <lane id=":J21_11_0" index="0" disallow="pedestrian" speed="13.89" length="20.80" shape="154.80,439.60 154.80,460.40"/>
        <lane id=":J21_11_1" index="1" disallow="pedestrian" speed="13.89" length="20.80" shape="151.60,439.60 151.60,460.40"/>
    </edge>
    <edge id=":J21_13" function="internal">
        <lane id=":J21_13_0" index="0" disallow="pedestrian" speed="9.26" length="19.35" shape="151.60,439.60 150.85,444.85 148.60,448.60 144.85,450.85 139.60,451.60"/>
    </edge>
    <edge id=":J21_14" function="internal">
        <lane id=":J21_14_0" index="0" disallow="pedestrian" speed="3.65" length="4.67" shape="151.60,439.60 150.80,440.80 150.00,441.20 149.20,440.80 148.40,439.60"/>
    </edge>
    <edge id=":J21_15" function="internal">
        <lane id=":J21_15_0" index="0" disallow="pedestrian" speed="6.51" length="9.03" shape="139.60,445.20 142.05,444.85 143.80,443.80 144.85,442.05 145.20,439.60"/>
    </edge>
    <edge id=":J21_16" function="internal">
        <lane id=":J21_16_0" index="0" disallow="pedestrian" speed="13.89" length="20.80" shape="139.60,445.20 160.40,445.20"/>
        <lane id=":J21_16_1" index="1" disallow="pedestrian" speed="13.89" length="20.80" shape="139.60,448.40 160.40,448.40"/>
    </edge>
    <edge id=":J21_18" function="internal">
        <lane id=":J21_18_0" index="0" disallow="pedestrian" speed="9.26" length="19.35" shape="139.60,448.40 144.85,449.15 148.60,451.40 150.85,455.15 151.60,460.40"/>
    </edge>
    <edge id=":J21_19" function="internal">
        <lane id=":J21_19_0" index="0" disallow="pedestrian" speed="3.65" length="4.67" shape="139.60,448.40 140.80,449.20 141.20,450.00 140.80,450.80 139.60,451.60"/>
    </edge>
    <edge id=":J22_0" function="internal">
        <lane id=":J22_0_0" index="0" disallow="pedestrian" speed="6.51" length="9.03" shape="295.20,460.40 294.85,457.95 293.80,456.20 292.05,455.15 289.60,454.80"/>
    </edge>
    <edge id=":J22_1" function="internal">
        <lane id=":J22_1_0" index="0" disallow="pedestrian" speed="13.89" length="20.80" shape="295.20,460.40 295.20,439.60"/>
        <lane id=":J22_1_1" index="1" disallow="pedestrian" speed="13.89" length="20.80" shape="298.40,460.40 298.40,439.60"/>
    </edge>
    <edge id=":J22_3" function="internal">
        <lane id=":J22_3_0" index="0" disallow="pedestrian" speed="9.26" length="5.01" shape="298.40,460.40 299.11,455.44"/>
    </edge>
    <edge id=":J22_4" function="internal">
        <lane id=":J22_4_0" index="0" disallow="pedestrian" speed="3.65" length="1.44" shape="298.40,460.40 299.20,459.20"/>
    </edge>
    <edge id=":J22_20" function="internal">
        <lane id=":J22_20_0" index="0" disallow="pedestrian" speed="9.26" length="14.34" shape="299.11,455.44 299.15,455.15 301.40,451.40 305.15,449.15 310.40,448.40"/>
    </edge>
    <edge id=":J22_21" function="internal">
        <lane id=":J22_21_0" index="0" disallow="pedestrian" speed="3.65" length="3.23" shape="299.20,459.20 300.00,458.80 300.80,459.20 301.60,460.40"/>
    </edge>
    <edge id=":J22_5" function="internal">
        <lane id=":J22_5_0" index="0" disallow="pedestrian" speed="6.51" length="9.03" shape="310.40,454.80 307.95,455.15 306.20,456.20 305.15,457.95 304.80,460.40"/>
    </edge>
    <edge id=":J22_6" function="internal">
        <lane id=":J22_6_0" index="0" disallow="pedestrian" speed="13.89" length="20.80" shape="310.40,454.80 289.60,454.80"/>
        <lane id=":J22_6_1" index="1" disallow="pedestrian" speed="13.89" length="20.80" shape="310.40,451.60 289.60,451.60"/>
    </edge>
    <edge id=":J22_8" function="internal">
        <lane id=":J22_8_0" index="0" disallow="pedestrian" speed="9.26" length="2.51" shape="310.40,451.60 307.91,451.24"/>
    </edge>
    <edge id=":J22_9" function="internal">
        <lane id=":J22_9_0" index="0" disallow="pedestrian" speed="3.65" length="4.67" shape="310.40,451.60 309.20,450.80 308.80,450.00 309.20,449.20 310.40,448.40"/>
    </edge>
    <edge id=":J22_22" function="internal">
        <lane id=":J22_22_0" index="0" disallow="pedestrian" speed="9.26" length="16.84" shape="307.91,451.24 305.15,450.85 301.40,448.60 299.15,444.85 298.40,439.60"/>
    </edge>
    <edge id=":J22_10" function="internal">
        <lane id=":J22_10_0" index="0" disallow="pedestrian" speed="6.51" length="9.03" shape="304.80,439.60 305.15,442.05 306.20,443.80 307.95,444.85 310.40,445.20"/>
    </edge>
    <edge id=":J22_11" function="internal">
        <lane id=":J22_11_0" index="0" disallow="pedestrian" speed="13.89" length="20.80" shape="304.80,439.60 304.80,460.40"/>
        <lane id=":J22_11_1" index="1" disallow="pedestrian" speed="13.89" length="20.80" shape="301.60,439.60 301.60,460.40"/>
    </edge>
    <edge id=":J22_13" function="internal">
        <lane id=":J22_13_0" index="0" disallow="pedestrian" speed="9.26" length="19.35" shape="301.60,439.60 300.85,444.85 298.60,448.60 294.85,450.85 289.60,451.60"/>
    </edge>
    <edge id=":J22_14" function="internal">
        <lane id=":J22_14_0" index="0" disallow="pedestrian" speed="3.65" length="4.67" shape="301.60,439.60 300.80,440.80 300.00,441.20 299.20,440.80 298.40,439.60"/>
    </edge>
    <edge id=":J22_15" function="internal">
        <lane id=":J22_15_0" index="0" disallow="pedestrian" speed="6.51" length="9.03" shape="289.60,445.20 292.05,444.85 293.80,443.80 294.85,442.05 295.20,439.60"/>
    </edge>
    <edge id=":J22_16" function="internal">
        <lane id=":J22_16_0" index="0" disallow="pedestrian" speed="13.89" length="20.80" shape="289.60,445.20 310.40,445.20"/>
        <lane id=":J22_16_1" index="1" disallow="pedestrian" speed="13.89" length="20.80" shape="289.60,448.40 310.40,448.40"/>
    </edge>
    <edge id=":J22_18" function="internal">
        <lane id=":J22_18_0" index="0" disallow="pedestrian" speed="9.26" length="19.35" shape="289.60,448.40 294.85,449.15 298.60,451.40 300.85,455.15 301.60,460.40"/>
    </edge>
    <edge id=":J22_19" function="internal">
        <lane id=":J22_19_0" index="0" disallow="pedestrian" speed="3.65" length="4.67" shape="289.60,448.40 290.80,449.20 291.20,450.00 290.80,450.80 289.60,451.60"/>
    </edge>
    <edge id=":J23_0" function="internal">
        <lane id=":J23_0_0" index="0" disallow="pedestrian" speed="6.51" length="9.03" shape="445.20,460.40 444.85,457.95 443.80,456.20 442.05,455.15 439.60,454.80"/>
    </edge>
    <edge id=":J23_1" function="internal">
        <lane id=":J23_1_0" index="0" disallow="pedestrian" speed="13.89" length="20.80" shape="445.20,460.40 445.20,439.60"/>
        <lane id=":J23_1_1" index="1" disallow="pedestrian" speed="13.89" length="20.80" shape="448.40,460.40 448.40,439.60"/>
    </edge>
    <edge id=":J23_3" function="internal">
        <lane id=":J23_3_0" index="0" disallow="pedestrian" speed="9.26" length="5.01" shape="448.40,460.40 449.11,455.44"/>
    </edge>
    <edge id=":J23_4" function="internal">
        <lane id=":J23_4_0" index="0" disallow="pedestrian" speed="3.65" length="1.44" shape="448.40,460.40 449.20,459.20"/>
    </edge>
    <edge id=":J23_20" function="internal">
        <lane id=":J23_20_0" index="0" disallow="pedestrian" speed="9.26" length="14.34" shape="449.11,455.44 449.15,455.15 451.40,451.40 455.15,449.15 460.40,448.40"/>
    </edge>
    <edge id=":J23_21" function="internal">
        <lane id=":J23_21_0" index="0" disallow="pedestrian" speed="3.65" length="3.23" shape="449.20,459.20 450.00,458.80 450.80,459.20 451.60,460.40"/>
    </edge>
    <edge id=":J23_5" function="internal">