<?xml version="1.0" encoding="UTF-8"?>

<configuration>
    <input>
        <net-file value="4x4.net.xml"/>
        <route-files value="4x4_ultra_stress.rou.xml"/>
    </input>
    <time>
        <begin value="0"/>
        <end value="3600"/>
        <step-length value="1"/>
    </time>
</configuration>
