<?xml version="1.0" encoding="UTF-8"?>

<!-- generated by generate_routes_4x4.py -->
<routes>
    <vType id="ped_wait_hazard" vClass="pedestrian" impatience="0.0" jmIgnoreFoeProb="0.0" jmDriveAfterRedTime="-1"/>
    <!-- demand=curriculum_lmh: same ultra-stress OD, staged 0-1200 low, 1200-2400 medium, 2400-3600 high -->
    <!-- segment=low: begin=0, end=1200, 3840 veh/h + 384 ped/h -->
    <flow id="f_low_-h11_to_-h15" begin="0.00" end="1200.00" perHour="115.00" from="-h11" to="-h15" departLane="best" departSpeed="max"/>
    <flow id="f_low_-h21_to_-h15" begin="0.00" end="1200.00" perHour="365.00" from="-h21" to="-h15" departLane="best" departSpeed="max"/>
    <flow id="f_low_-h31_to_-h45" begin="0.00" end="1200.00" perHour="365.00" from="-h31" to="-h45" departLane="best" departSpeed="max"/>
    <flow id="f_low_-h41_to_-h45" begin="0.00" end="1200.00" perHour="115.00" from="-h41" to="-h45" departLane="best" departSpeed="max"/>
    <flow id="f_low_h15_to_h11" begin="0.00" end="1200.00" perHour="115.00" from="h15" to="h11" departLane="best" departSpeed="max"/>
    <flow id="f_low_h25_to_h11" begin="0.00" end="1200.00" perHour="365.00" from="h25" to="h11" departLane="best" departSpeed="max"/>
    <flow id="f_low_h35_to_h41" begin="0.00" end="1200.00" perHour="365.00" from="h35" to="h41" departLane="best" departSpeed="max"/>
    <flow id="f_low_h45_to_h41" begin="0.00" end="1200.00" perHour="115.00" from="h45" to="h41" departLane="best" departSpeed="max"/>
    <flow id="f_low_-v11_to_-v15" begin="0.00" end="1200.00" perHour="115.00" from="-v11" to="-v15" departLane="best" departSpeed="max"/>
    <flow id="f_low_-v21_to_-v45" begin="0.00" end="1200.00" perHour="365.00" from="-v21" to="-v45" departLane="best" departSpeed="max"/>
    <flow id="f_low_-v31_to_-v15" begin="0.00" end="1200.00" perHour="365.00" from="-v31" to="-v15" departLane="best" departSpeed="max"/>
    <flow id="f_low_-v41_to_-v45" begin="0.00" end="1200.00" perHour="115.00" from="-v41" to="-v45" departLane="best" departSpeed="max"/>
    <flow id="f_low_v15_to_v11" begin="0.00" end="1200.00" perHour="115.00" from="v15" to="v11" departLane="best" departSpeed="max"/>
    <flow id="f_low_v25_to_v41" begin="0.00" end="1200.00" perHour="365.00" from="v25" to="v41" departLane="best" departSpeed="max"/>
    <flow id="f_low_v35_to_v11" begin="0.00" end="1200.00" perHour="365.00" from="v35" to="v11" departLane="best" departSpeed="max"/>
    <flow id="f_low_v45_to_v41" begin="0.00" end="1200.00" perHour="115.00" from="v45" to="v41" departLane="best" departSpeed="max"/>
    <personFlow id="pf_low_-h11_to_-v15" type="ped_wait_hazard" begin="0.00" end="1200.00" perHour="11.50">
        <personTrip from="-h11" to="-v15"/>
    </personFlow>
    <personFlow id="pf_low_-h21_to_-v15" type="ped_wait_hazard" begin="0.00" end="1200.00" perHour="36.50">
        <personTrip from="-h21" to="-v15"/>
    </personFlow>
    <personFlow id="pf_low_-h31_to_-v45" type="ped_wait_hazard" begin="0.00" end="1200.00" perHour="36.50">
        <personTrip from="-h31" to="-v45"/>
    </personFlow>
    <personFlow id="pf_low_-h41_to_-v45" type="ped_wait_hazard" begin="0.00" end="1200.00" perHour="11.50">
        <personTrip from="-h41" to="-v45"/>
    </personFlow>
    <personFlow id="pf_low_h15_to_v11" type="ped_wait_hazard" begin="0.00" end="1200.00" perHour="11.50">
        <personTrip from="h15" to="v11"/>
    </personFlow>
    <personFlow id="pf_low_h25_to_v11" type="ped_wait_hazard" begin="0.00" end="1200.00" perHour="36.50">
        <personTrip from="h25" to="v11"/>
    </personFlow>
    <personFlow id="pf_low_h35_to_v41" type="ped_wait_hazard" begin="0.00" end="1200.00" perHour="36.50">
        <personTrip from="h35" to="v41"/>
    </personFlow>
    <personFlow id="pf_low_h45_to_v41" type="ped_wait_hazard" begin="0.00" end="1200.00" perHour="11.50">
        <personTrip from="h45" to="v41"/>
    </personFlow>
    <personFlow id="pf_low_-v11_to_-h15" type="ped_wait_hazard" begin="0.00" end="1200.00" perHour="11.50">
        <personTrip from="-v11" to="-h15"/>
    </personFlow>
    <personFlow id="pf_low_-v21_to_-h45" type="ped_wait_hazard" begin="0.00" end="1200.00" perHour="36.50">
        <personTrip from="-v21" to="-h45"/>
    </personFlow>
    <personFlow id="pf_low_-v31_to_-h15" type="ped_wait_hazard" begin="0.00" end="1200.00" perHour="36.50">
        <personTrip from="-v31" to="-h15"/>
    </personFlow>
    <personFlow id="pf_low_-v41_to_-h45" type="ped_wait_hazard" begin="0.00" end="1200.00" perHour="11.50">
        <personTrip from="-v41" to="-h45"/>
    </personFlow>
    <personFlow id="pf_low_v15_to_h11" type="ped_wait_hazard" begin="0.00" end="1200.00" perHour="11.50">
        <personTrip from="v15" to="h11"/>
    </personFlow>
    <personFlow id="pf_low_v25_to_h41" type="ped_wait_hazard" begin="0.00" end="1200.00" perHour="36.50">
        <personTrip from="v25" to="h41"/>
    </personFlow>
    <personFlow id="pf_low_v35_to_h11" type="ped_wait_hazard" begin="0.00" end="1200.00" perHour="36.50">
        <personTrip from="v35" to="h11"/>
    </personFlow>
    <personFlow id="pf_low_v45_to_h41" type="ped_wait_hazard" begin="0.00" end="1200.00" perHour="11.50">
        <personTrip from="v45" to="h41"/>
    </personFlow>
    <!-- segment=medium: begin=1200, end=2400, 5376 veh/h + 537 ped/h -->
    <flow id="f_medium_-h11_to_-h15" begin="1200.00" end="2400.00" perHour="161.00" from="-h11" to="-h15" departLane="best" departSpeed="max"/>
    <flow id="f_medium_-h21_to_-h15" begin="1200.00" end="2400.00" perHour="511.00" from="-h21" to="-h15" departLane="best" departSpeed="max"/>
    <flow id="f_medium_-h31_to_-h45" begin="1200.00" end="2400.00" perHour="511.00" from="-h31" to="-h45" departLane="best" departSpeed="max"/>
    <flow id="f_medium_-h41_to_-h45" begin="1200.00" end="2400.00" perHour="161.00" from="-h41" to="-h45" departLane="best" departSpeed="max"/>
    <flow id="f_medium_h15_to_h11" begin="1200.00" end="2400.00" perHour="161.00" from="h15" to="h11" departLane="best" departSpeed="max"/>
    <flow id="f_medium_h25_to_h11" begin="1200.00" end="2400.00" perHour="511.00" from="h25" to="h11" departLane="best" departSpeed="max"/>
    <flow id="f_medium_h35_to_h41" begin="1200.00" end="2400.00" perHour="511.00" from="h35" to="h41" departLane="best" departSpeed="max"/>
    <flow id="f_medium_h45_to_h41" begin="1200.00" end="2400.00" perHour="161.00" from="h45" to="h41" departLane="best" departSpeed="max"/>
    <flow id="f_medium_-v11_to_-v15" begin="1200.00" end="2400.00" perHour="161.00" from="-v11" to="-v15" departLane="best" departSpeed="max"/>
    <flow id="f_medium_-v21_to_-v45" begin="1200.00" end="2400.00" perHour="511.00" from="-v21" to="-v45" departLane="best" departSpeed="max"/>
    <flow id="f_medium_-v31_to_-v15" begin="1200.00" end="2400.00" perHour="511.00" from="-v31" to="-v15" departLane="best" departSpeed="max"/>
    <flow id="f_medium_-v41_to_-v45" begin="1200.00" end="2400.00" perHour="161.00" from="-v41" to="-v45" departLane="best" departSpeed="max"/>
    <flow id="f_medium_v15_to_v11" begin="1200.00" end="2400.00" perHour="161.00" from="v15" to="v11" departLane="best" departSpeed="max"/>
    <flow id="f_medium_v25_to_v41" begin="1200.00" end="2400.00" perHour="511.00" from="v25" to="v41" departLane="best" departSpeed="max"/>
    <flow id="f_medium_v35_to_v11" begin="1200.00" end="2400.00" perHour="511.00" from="v35" to="v11" departLane="best" departSpeed="max"/>
    <flow id="f_medium_v45_to_v41" begin="1200.00" end="2400.00" perHour="161.00" from="v45" to="v41" departLane="best" departSpeed="max"/>
    <personFlow id="pf_medium_-h11_to_-v15" type="ped_wait_hazard" begin="1200.00" end="2400.00" perHour="16.10">
        <personTrip from="-h11" to="-v15"/>
    </personFlow>
    <personFlow id="pf_medium_-h21_to_-v15" type="ped_wait_hazard" begin="1200.00" end="2400.00" perHour="51.10">
        <personTrip from="-h21" to="-v15"/>
    </personFlow>
    <personFlow id="pf_medium_-h31_to_-v45" type="ped_wait_hazard" begin="1200.00" end="2400.00" perHour="51.10">
        <personTrip from="-h31" to="-v45"/>
    </personFlow>
    <personFlow id="pf_medium_-h41_to_-v45" type="ped_wait_hazard" begin="1200.00" end="2400.00" perHour="16.10">
        <personTrip from="-h41" to="-v45"/>
    </personFlow>
    <personFlow id="pf_medium_h15_to_v11" type="ped_wait_hazard" begin="1200.00" end="2400.00" perHour="16.10">
        <personTrip from="h15" to="v11"/>
    </personFlow>
    <personFlow id="pf_medium_h25_to_v11" type="ped_wait_hazard" begin="1200.00" end="2400.00" perHour="51.10">
        <personTrip from="h25" to="v11"/>
    </personFlow>
    <personFlow id="pf_medium_h35_to_v41" type="ped_wait_hazard" begin="1200.00" end="2400.00" perHour="51.10">
        <personTrip from="h35" to="v41"/>
    </personFlow>
    <personFlow id="pf_medium_h45_to_v41" type="ped_wait_hazard" begin="1200.00" end="2400.00" perHour="16.10">
        <personTrip from="h45" to="v41"/>
    </personFlow>
    <personFlow id="pf_medium_-v11_to_-h15" type="ped_wait_hazard" begin="1200.00" end="2400.00" perHour="16.10">
        <personTrip from="-v11" to="-h15"/>
    </personFlow>
    <personFlow id="pf_medium_-v21_to_-h45" type="ped_wait_hazard" begin="1200.00" end="2400.00" perHour="51.10">
        <personTrip from="-v21" to="-h45"/>
    </personFlow>
    <personFlow id="pf_medium_-v31_to_-h15" type="ped_wait_hazard" begin="1200.00" end="2400.00" perHour="51.10">
        <personTrip from="-v31" to="-h15"/>
    </personFlow>
    <personFlow id="pf_medium_-v41_to_-h45" type="ped_wait_hazard" begin="1200.00" end="2400.00" perHour="16.10">
        <personTrip from="-v41" to="-h45"/>
    </personFlow>
    <personFlow id="pf_medium_v15_to_h11" type="ped_wait_hazard" begin="1200.00" end="2400.00" perHour="16.10">
        <personTrip from="v15" to="h11"/>
    </personFlow>
    <personFlow id="pf_medium_v25_to_h41" type="ped_wait_hazard" begin="1200.00" end="2400.00" perHour="51.10">
        <personTrip from="v25" to="h41"/>
    </personFlow>
    <personFlow id="pf_medium_v35_to_h11" type="ped_wait_hazard" begin="1200.00" end="2400.00" perHour="51.10">
        <personTrip from="v35" to="h11"/>
    </personFlow>
    <personFlow id="pf_medium_v45_to_h41" type="ped_wait_hazard" begin="1200.00" end="2400.00" perHour="16.10">
        <personTrip from="v45" to="h41"/>
    </personFlow>
    <!-- segment=high: begin=2400, end=3600, 6912 veh/h + 691 ped/h -->
    <flow id="f_high_-h11_to_-h15" begin="2400.00" end="3600.00" perHour="207.00" from="-h11" to="-h15" departLane="best" departSpeed="max"/>
    <flow id="f_high_-h21_to_-h15" begin="2400.00" end="3600.00" perHour="657.00" from="-h21" to="-h15" departLane="best" departSpeed="max"/>
    <flow id="f_high_-h31_to_-h45" begin="2400.00" end="3600.00" perHour="657.00" from="-h31" to="-h45" departLane="best" departSpeed="max"/>
    <flow id="f_high_-h41_to_-h45" begin="2400.00" end="3600.00" perHour="207.00" from="-h41" to="-h45" departLane="best" departSpeed="max"/>
    <flow id="f_high_h15_to_h11" begin="2400.00" end="3600.00" perHour="207.00" from="h15" to="h11" departLane="best" departSpeed="max"/>
    <flow id="f_high_h25_to_h11" begin="2400.00" end="3600.00" perHour="657.00" from="h25" to="h11" departLane="best" departSpeed="max"/>
    <flow id="f_high_h35_to_h41" begin="2400.00" end="3600.00" perHour="657.00" from="h35" to="h41" departLane="best" departSpeed="max"/>
    <flow id="f_high_h45_to_h41" begin="2400.00" end="3600.00" perHour="207.00" from="h45" to="h41" departLane="best" departSpeed="max"/>
    <flow id="f_high_-v11_to_-v15" begin="2400.00" end="3600.00" perHour="207.00" from="-v11" to="-v15" departLane="best" departSpeed="max"/>
    <flow id="f_high_-v21_to_-v45" begin="2400.00" end="3600.00" perHour="657.00" from="-v21" to="-v45" departLane="best" departSpeed="max"/>
    <flow id="f_high_-v31_to_-v15" begin="2400.00" end="3600.00" perHour="657.00" from="-v31" to="-v15" departLane="best" departSpeed="max"/>
    <flow id="f_high_-v41_to_-v45" begin="2400.00" end="3600.00" perHour="207.00" from="-v41" to="-v45" departLane="best" departSpeed="max"/>
    <flow id="f_high_v15_to_v11" begin="2400.00" end="3600.00" perHour="207.00" from="v15" to="v11" departLane="best" departSpeed="max"/>
    <flow id="f_high_v25_to_v41" begin="2400.00" end="3600.00" perHour="657.00" from="v25" to="v41" departLane="best" departSpeed="max"/>
    <flow id="f_high_v35_to_v11" begin="2400.00" end="3600.00" perHour="657.00" from="v35" to="v11" departLane="best" departSpeed="max"/>
    <flow id="f_high_v45_to_v41" begin="2400.00" end="3600.00" perHour="207.00" from="v45" to="v41" departLane="best" departSpeed="max"/>
    <personFlow id="pf_high_-h11_to_-v15" type="ped_wait_hazard" begin="2400.00" end="3600.00" perHour="20.70">
        <personTrip from="-h11" to="-v15"/>
    </personFlow>
    <personFlow id="pf_high_-h21_to_-v15" type="ped_wait_hazard" begin="2400.00" end="3600.00" perHour="65.70">
        <personTrip from="-h21" to="-v15"/>
    </personFlow>
    <personFlow id="pf_high_-h31_to_-v45" type="ped_wait_hazard" begin="2400.00" end="3600.00" perHour="65.70">
        <personTrip from="-h31" to="-v45"/>
    </personFlow>
    <personFlow id="pf_high_-h41_to_-v45" type="ped_wait_hazard" begin="2400.00" end="3600.00" perHour="20.70">
        <personTrip from="-h41" to="-v45"/>
    </personFlow>
    <personFlow id="pf_high_h15_to_v11" type="ped_wait_hazard" begin="2400.00" end="3600.00" perHour="20.70">
        <personTrip from="h15" to="v11"/>
    </personFlow>
    <personFlow id="pf_high_h25_to_v11" type="ped_wait_hazard" begin="2400.00" end="3600.00" perHour="65.70">
        <personTrip from="h25" to="v11"/>
    </personFlow>
    <personFlow id="pf_high_h35_to_v41" type="ped_wait_hazard" begin="2400.00" end="3600.00" perHour="65.70">
        <personTrip from="h35" to="v41"/>
    </personFlow>
    <personFlow id="pf_high_h45_to_v41" type="ped_wait_hazard" begin="2400.00" end="3600.00" perHour="20.70">
        <personTrip from="h45" to="v41"/>
    </personFlow>
    <personFlow id="pf_high_-v11_to_-h15" type="ped_wait_hazard" begin="2400.00" end="3600.00" perHour="20.70">
        <personTrip from="-v11" to="-h15"/>
    </personFlow>
    <personFlow id="pf_high_-v21_to_-h45" type="ped_wait_hazard" begin="2400.00" end="3600.00" perHour="65.70">
        <personTrip from="-v21" to="-h45"/>
    </personFlow>
    <personFlow id="pf_high_-v31_to_-h15" type="ped_wait_hazard" begin="2400.00" end="3600.00" perHour="65.70">
        <personTrip from="-v31" to="-h15"/>
    </personFlow>
    <personFlow id="pf_high_-v41_to_-h45" type="ped_wait_hazard" begin="2400.00" end="3600.00" perHour="20.70">
        <personTrip from="-v41" to="-h45"/>
    </personFlow>
    <personFlow id="pf_high_v15_to_h11" type="ped_wait_hazard" begin="2400.00" end="3600.00" perHour="20.70">
        <personTrip from="v15" to="h11"/>
    </personFlow>
    <personFlow id="pf_high_v25_to_h41" type="ped_wait_hazard" begin="2400.00" end="3600.00" perHour="65.70">
        <personTrip from="v25" to="h41"/>
    </personFlow>
    <personFlow id="pf_high_v35_to_h11" type="ped_wait_hazard" begin="2400.00" end="3600.00" perHour="65.70">
        <personTrip from="v35" to="h11"/>
    </personFlow>
    <personFlow id="pf_high_v45_to_h41" type="ped_wait_hazard" begin="2400.00" end="3600.00" perHour="20.70">
        <personTrip from="v45" to="h41"/>
    </personFlow>
    <!-- expected total over 3600s: 5376 vehicles + 537 pedestrians -->
</routes>
