<?xml version="1.0" encoding="UTF-8"?>

<!-- generated by generate_routes_4x4.py -->
<routes>
    <vType id="ped_wait_hazard" vClass="pedestrian" impatience="0.0" jmIgnoreFoeProb="0.0" jmDriveAfterRedTime="-1"/>
    <!-- demand=curriculum_mhu: same ultra-stress OD, staged 0-1200 medium, 1200-2400 high, 2400-3600 ultra_stress -->
    <!-- segment=medium: begin=0, end=1200, 6912 veh/h + 691 ped/h -->
    <flow id="f_medium_-h11_to_-h15" begin="0.00" end="1200.00" perHour="207.00" from="-h11" to="-h15" departLane="best" departSpeed="max"/>
    <flow id="f_medium_-h21_to_-h15" begin="0.00" end="1200.00" perHour="657.00" from="-h21" to="-h15" departLane="best" departSpeed="max"/>
    <flow id="f_medium_-h31_to_-h45" begin="0.00" end="1200.00" perHour="657.00" from="-h31" to="-h45" departLane="best" departSpeed="max"/>
    <flow id="f_medium_-h41_to_-h45" begin="0.00" end="1200.00" perHour="207.00" from="-h41" to="-h45" departLane="best" departSpeed="max"/>
    <flow id="f_medium_h15_to_h11" begin="0.00" end="1200.00" perHour="207.00" from="h15" to="h11" departLane="best" departSpeed="max"/>
    <flow id="f_medium_h25_to_h11" begin="0.00" end="1200.00" perHour="657.00" from="h25" to="h11" departLane="best" departSpeed="max"/>
    <flow id="f_medium_h35_to_h41" begin="0.00" end="1200.00" perHour="657.00" from="h35" to="h41" departLane="best" departSpeed="max"/>
    <flow id="f_medium_h45_to_h41" begin="0.00" end="1200.00" perHour="207.00" from="h45" to="h41" departLane="best" departSpeed="max"/>
    <flow id="f_medium_-v11_to_-v15" begin="0.00" end="1200.00" perHour="207.00" from="-v11" to="-v15" departLane="best" departSpeed="max"/>
    <flow id="f_medium_-v21_to_-v45" begin="0.00" end="1200.00" perHour="657.00" from="-v21" to="-v45" departLane="best" departSpeed="max"/>
    <flow id="f_medium_-v31_to_-v15" begin="0.00" end="1200.00" perHour="657.00" from="-v31" to="-v15" departLane="best" departSpeed="max"/>
    <flow id="f_medium_-v41_to_-v45" begin="0.00" end="1200.00" perHour="207.00" from="-v41" to="-v45" departLane="best" departSpeed="max"/>
    <flow id="f_medium_v15_to_v11" begin="0.00" end="1200.00" perHour="207.00" from="v15" to="v11" departLane="best" departSpeed="max"/>
    <flow id="f_medium_v25_to_v41" begin="0.00" end="1200.00" perHour="657.00" from="v25" to="v41" departLane="best" departSpeed="max"/>
    <flow id="f_medium_v35_to_v11" begin="0.00" end="1200.00" perHour="657.00" from="v35" to="v11" departLane="best" departSpeed="max"/>
    <flow id="f_medium_v45_to_v41" begin="0.00" end="1200.00" perHour="207.00" from="v45" to="v41" departLane="best" departSpeed="max"/>
    <personFlow id="pf_medium_-h11_to_-v15" type="ped_wait_hazard" begin="0.00" end="1200.00" perHour="20.70">
        <personTrip from="-h11" to="-v15"/>
    </personFlow>
    <personFlow id="pf_medium_-h21_to_-v15" type="ped_wait_hazard" begin="0.00" end="1200.00" perHour="65.70">
        <personTrip from="-h21" to="-v15"/>
    </personFlow>
    <personFlow id="pf_medium_-h31_to_-v45" type="ped_wait_hazard" begin="0.00" end="1200.00" perHour="65.70">
        <personTrip from="-h31" to="-v45"/>
    </personFlow>
    <personFlow id="pf_medium_-h41_to_-v45" type="ped_wait_hazard" begin="0.00" end="1200.00" perHour="20.70">
        <personTrip from="-h41" to="-v45"/>
    </personFlow>
    <personFlow id="pf_medium_h15_to_v11" type="ped_wait_hazard" begin="0.00" end="1200.00" perHour="20.70">
        <personTrip from="h15" to="v11"/>
    </personFlow>
    <personFlow id="pf_medium_h25_to_v11" type="ped_wait_hazard" begin="0.00" end="1200.00" perHour="65.70">
        <personTrip from="h25" to="v11"/>
    </personFlow>
    <personFlow id="pf_medium_h35_to_v41" type="ped_wait_hazard" begin="0.00" end="1200.00" perHour="65.70">
        <personTrip from="h35" to="v41"/>
    </personFlow>
    <personFlow id="pf_medium_h45_to_v41" type="ped_wait_hazard" begin="0.00" end="1200.00" perHour="20.70">
        <personTrip from="h45" to="v41"/>
    </personFlow>
    <personFlow id="pf_medium_-v11_to_-h15" type="ped_wait_hazard" begin="0.00" end="1200.00" perHour="20.70">
        <personTrip from="-v11" to="-h15"/>
    </personFlow>
    <personFlow id="pf_medium_-v21_to_-h45" type="ped_wait_hazard" begin="0.00" end="1200.00" perHour="65.70">
        <personTrip from="-v21" to="-h45"/>
    </personFlow>
    <personFlow id="pf_medium_-v31_to_-h15" type="ped_wait_hazard" begin="0.00" end="1200.00" perHour="65.70">
        <personTrip from="-v31" to="-h15"/>
    </personFlow>
    <personFlow id="pf_medium_-v41_to_-h45" type="ped_wait_hazard" begin="0.00" end="1200.00" perHour="20.70">
        <personTrip from="-v41" to="-h45"/>
    </personFlow>
    <personFlow id="pf_medium_v15_to_h11" type="ped_wait_hazard" begin="0.00" end="1200.00" perHour="20.70">
        <personTrip from="v15" to="h11"/>
    </personFlow>
    <personFlow id="pf_medium_v25_to_h41" type="ped_wait_hazard" begin="0.00" end="1200.00" perHour="65.70">
        <personTrip from="v25" to="h41"/>
    </personFlow>
    <personFlow id="pf_medium_v35_to_h11" type="ped_wait_hazard" begin="0.00" end="1200.00" perHour="65.70">
        <personTrip from="v35" to="h11"/>
    </personFlow>
    <personFlow id="pf_medium_v45_to_h41" type="ped_wait_hazard" begin="0.00" end="1200.00" perHour="20.70">
        <personTrip from="v45" to="h41"/>
    </personFlow>
    <!-- segment=high: begin=1200, end=2400, 8448 veh/h + 844 ped/h -->
    <flow id="f_high_-h11_to_-h15" begin="1200.00" end="2400.00" perHour="253.00" from="-h11" to="-h15" departLane="best" departSpeed="max"/>
    <flow id="f_high_-h21_to_-h15" begin="1200.00" end="2400.00" perHour="803.00" from="-h21" to="-h15" departLane="best" departSpeed="max"/>
    <flow id="f_high_-h31_to_-h45" begin="1200.00" end="2400.00" perHour="803.00" from="-h31" to="-h45" departLane="best" departSpeed="max"/>
    <flow id="f_high_-h41_to_-h45" begin="1200.00" end="2400.00" perHour="253.00" from="-h41" to="-h45" departLane="best" departSpeed="max"/>
    <flow id="f_high_h15_to_h11" begin="1200.00" end="2400.00" perHour="253.00" from="h15" to="h11" departLane="best" departSpeed="max"/>
    <flow id="f_high_h25_to_h11" begin="1200.00" end="2400.00" perHour="803.00" from="h25" to="h11" departLane="best" departSpeed="max"/>
    <flow id="f_high_h35_to_h41" begin="1200.00" end="2400.00" perHour="803.00" from="h35" to="h41" departLane="best" departSpeed="max"/>
    <flow id="f_high_h45_to_h41" begin="1200.00" end="2400.00" perHour="253.00" from="h45" to="h41" departLane="best" departSpeed="max"/>
    <flow id="f_high_-v11_to_-v15" begin="1200.00" end="2400.00" perHour="253.00" from="-v11" to="-v15" departLane="best" departSpeed="max"/>
    <flow id="f_high_-v21_to_-v45" begin="1200.00" end="2400.00" perHour="803.00" from="-v21" to="-v45" departLane="best" departSpeed="max"/>
    <flow id="f_high_-v31_to_-v15" begin="1200.00" end="2400.00" perHour="803.00" from="-v31" to="-v15" departLane="best" departSpeed="max"/>
    <flow id="f_high_-v41_to_-v45" begin="1200.00" end="2400.00" perHour="253.00" from="-v41" to="-v45" departLane="best" departSpeed="max"/>
    <flow id="f_high_v15_to_v11" begin="1200.00" end="2400.00" perHour="253.00" from="v15" to="v11" departLane="best" departSpeed="max"/>
    <flow id="f_high_v25_to_v41" begin="1200.00" end="2400.00" perHour="803.00" from="v25" to="v41" departLane="best" departSpeed="max"/>
    <flow id="f_high_v35_to_v11" begin="1200.00" end="2400.00" perHour="803.00" from="v35" to="v11" departLane="best" departSpeed="max"/>
    <flow id="f_high_v45_to_v41" begin="1200.00" end="2400.00" perHour="253.00" from="v45" to="v41" departLane="best" departSpeed="max"/>
    <personFlow id="pf_high_-h11_to_-v15" type="ped_wait_hazard" begin="1200.00" end="2400.00" perHour="25.30">
        <personTrip from="-h11" to="-v15"/>
    </personFlow>
    <personFlow id="pf_high_-h21_to_-v15" type="ped_wait_hazard" begin="1200.00" end="2400.00" perHour="80.30">
        <personTrip from="-h21" to="-v15"/>
    </personFlow>
    <personFlow id="pf_high_-h31_to_-v45" type="ped_wait_hazard" begin="1200.00" end="2400.00" perHour="80.30">
        <personTrip from="-h31" to="-v45"/>
    </personFlow>
    <personFlow id="pf_high_-h41_to_-v45" type="ped_wait_hazard" begin="1200.00" end="2400.00" perHour="25.30">
        <personTrip from="-h41" to="-v45"/>
    </personFlow>
    <personFlow id="pf_high_h15_to_v11" type="ped_wait_hazard" begin="1200.00" end="2400.00" perHour="25.30">
        <personTrip from="h15" to="v11"/>
    </personFlow>
    <personFlow id="pf_high_h25_to_v11" type="ped_wait_hazard" begin="1200.00" end="2400.00" perHour="80.30">
        <personTrip from="h25" to="v11"/>
    </personFlow>
    <personFlow id="pf_high_h35_to_v41" type="ped_wait_hazard" begin="1200.00" end="2400.00" perHour="80.30">
        <personTrip from="h35" to="v41"/>
    </personFlow>
    <personFlow id="pf_high_h45_to_v41" type="ped_wait_hazard" begin="1200.00" end="2400.00" perHour="25.30">
        <personTrip from="h45" to="v41"/>
    </personFlow>
    <personFlow id="pf_high_-v11_to_-h15" type="ped_wait_hazard" begin="1200.00" end="2400.00" perHour="25.30">
        <personTrip from="-v11" to="-h15"/>
    </personFlow>
    <personFlow id="pf_high_-v21_to_-h45" type="ped_wait_hazard" begin="1200.00" end="2400.00" perHour="80.30">
        <personTrip from="-v21" to="-h45"/>
    </personFlow>
    <personFlow id="pf_high_-v31_to_-h15" type="ped_wait_hazard" begin="1200.00" end="2400.00" perHour="80.30">
        <personTrip from="-v31" to="-h15"/>
    </personFlow>
    <personFlow id="pf_high_-v41_to_-h45" type="ped_wait_hazard" begin="1200.00" end="2400.00" perHour="25.30">
        <personTrip from="-v41" to="-h45"/>
    </personFlow>
    <personFlow id="pf_high_v15_to_h11" type="ped_wait_hazard" begin="1200.00" end="2400.00" perHour="25.30">
        <personTrip from="v15" to="h11"/>
    </personFlow>
    <personFlow id="pf_high_v25_to_h41" type="ped_wait_hazard" begin="1200.00" end="2400.00" perHour="80.30">
        <personTrip from="v25" to="h41"/>
    </personFlow>
    <personFlow id="pf_high_v35_to_h11" type="ped_wait_hazard" begin="1200.00" end="2400.00" perHour="80.30">
        <personTrip from="v35" to="h11"/>
    </personFlow>
    <personFlow id="pf_high_v45_to_h41" type="ped_wait_hazard" begin="1200.00" end="2400.00" perHour="25.30">
        <personTrip from="v45" to="h41"/>
    </personFlow>
    <!-- segment=ultra_stress: begin=2400, end=3600, 9984 veh/h + 998 ped/h -->
    <flow id="f_ultra_stress_-h11_to_-h15" begin="2400.00" end="3600.00" perHour="299.00" from="-h11" to="-h15" departLane="best" departSpeed="max"/>
    <flow id="f_ultra_stress_-h21_to_-h15" begin="2400.00" end="3600.00" perHour="949.00" from="-h21" to="-h15" departLane="best" departSpeed="max"/>
    <flow id="f_ultra_stress_-h31_to_-h45" begin="2400.00" end="3600.00" perHour="949.00" from="-h31" to="-h45" departLane="best" departSpeed="max"/>
    <flow id="f_ultra_stress_-h41_to_-h45" begin="2400.00" end="3600.00" perHour="299.00" from="-h41" to="-h45" departLane="best" departSpeed="max"/>
    <flow id="f_ultra_stress_h15_to_h11" begin="2400.00" end="3600.00" perHour="299.00" from="h15" to="h11" departLane="best" departSpeed="max"/>
    <flow id="f_ultra_stress_h25_to_h11" begin="2400.00" end="3600.00" perHour="949.00" from="h25" to="h11" departLane="best" departSpeed="max"/>
    <flow id="f_ultra_stress_h35_to_h41" begin="2400.00" end="3600.00" perHour="949.00" from="h35" to="h41" departLane="best" departSpeed="max"/>
    <flow id="f_ultra_stress_h45_to_h41" begin="2400.00" end="3600.00" perHour="299.00" from="h45" to="h41" departLane="best" departSpeed="max"/>
    <flow id="f_ultra_stress_-v11_to_-v15" begin="2400.00" end="3600.00" perHour="299.00" from="-v11" to="-v15" departLane="best" departSpeed="max"/>
    <flow id="f_ultra_stress_-v21_to_-v45" begin="2400.00" end="3600.00" perHour="949.00" from="-v21" to="-v45" departLane="best" departSpeed="max"/>
    <flow id="f_ultra_stress_-v31_to_-v15" begin="2400.00" end="3600.00" perHour="949.00" from="-v31" to="-v15" departLane="best" departSpeed="max"/>
    <flow id="f_ultra_stress_-v41_to_-v45" begin="2400.00" end="3600.00" perHour="299.00" from="-v41" to="-v45" departLane="best" departSpeed="max"/>
    <flow id="f_ultra_stress_v15_to_v11" begin="2400.00" end="3600.00" perHour="299.00" from="v15" to="v11" departLane="best" departSpeed="max"/>
    <flow id="f_ultra_stress_v25_to_v41" begin="2400.00" end="3600.00" perHour="949.00" from="v25" to="v41" departLane="best" departSpeed="max"/>
    <flow id="f_ultra_stress_v35_to_v11" begin="2400.00" end="3600.00" perHour="949.00" from="v35" to="v11" departLane="best" departSpeed="max"/>
    <flow id="f_ultra_stress_v45_to_v41" begin="2400.00" end="3600.00" perHour="299.00" from="v45" to="v41" departLane="best" departSpeed="max"/>
    <personFlow id="pf_ultra_stress_-h11_to_-v15" type="ped_wait_hazard" begin="2400.00" end="3600.00" perHour="29.90">
        <personTrip from="-h11" to="-v15"/>
    </personFlow>
    <personFlow id="pf_ultra_stress_-h21_to_-v15" type="ped_wait_hazard" begin="2400.00" end="3600.00" perHour="94.90">
        <personTrip from="-h21" to="-v15"/>
    </personFlow>
    <personFlow id="pf_ultra_stress_-h31_to_-v45" type="ped_wait_hazard" begin="2400.00" end="3600.00" perHour="94.90">
        <personTrip from="-h31" to="-v45"/>
    </personFlow>
    <personFlow id="pf_ultra_stress_-h41_to_-v45" type="ped_wait_hazard" begin="2400.00" end="3600.00" perHour="29.90">
        <personTrip from="-h41" to="-v45"/>
    </personFlow>
    <personFlow id="pf_ultra_stress_h15_to_v11" type="ped_wait_hazard" begin="2400.00" end="3600.00" perHour="29.90">
        <personTrip from="h15" to="v11"/>
    </personFlow>
    <personFlow id="pf_ultra_stress_h25_to_v11" type="ped_wait_hazard" begin="2400.00" end="3600.00" perHour="94.90">
        <personTrip from="h25" to="v11"/>
    </personFlow>
    <personFlow id="pf_ultra_stress_h35_to_v41" type="ped_wait_hazard" begin="2400.00" end="3600.00" perHour="94.90">
        <personTrip from="h35" to="v41"/>
    </personFlow>
    <personFlow id="pf_ultra_stress_h45_to_v41" type="ped_wait_hazard" begin="2400.00" end="3600.00" perHour="29.90">
        <personTrip from="h45" to="v41"/>
    </personFlow>
    <personFlow id="pf_ultra_stress_-v11_to_-h15" type="ped_wait_hazard" begin="2400.00" end="3600.00" perHour="29.90">
        <personTrip from="-v11" to="-h15"/>
    </personFlow>
    <personFlow id="pf_ultra_stress_-v21_to_-h45" type="ped_wait_hazard" begin="2400.00" end="3600.00" perHour="94.90">
        <personTrip from="-v21" to="-h45"/>
    </personFlow>
    <personFlow id="pf_ultra_stress_-v31_to_-h15" type="ped_wait_hazard" begin="2400.00" end="3600.00" perHour="94.90">
        <personTrip from="-v31" to="-h15"/>
    </personFlow>
    <personFlow id="pf_ultra_stress_-v41_to_-h45" type="ped_wait_hazard" begin="2400.00" end="3600.00" perHour="29.90">
        <personTrip from="-v41" to="-h45"/>
    </personFlow>
    <personFlow id="pf_ultra_stress_v15_to_h11" type="ped_wait_hazard" begin="2400.00" end="3600.00" perHour="29.90">
        <personTrip from="v15" to="h11"/>
    </personFlow>
    <personFlow id="pf_ultra_stress_v25_to_h41" type="ped_wait_hazard" begin="2400.00" end="3600.00" perHour="94.90">
        <personTrip from="v25" to="h41"/>
    </personFlow>
    <personFlow id="pf_ultra_stress_v35_to_h11" type="ped_wait_hazard" begin="2400.00" end="3600.00" perHour="94.90">
        <personTrip from="v35" to="h11"/>
    </personFlow>
    <personFlow id="pf_ultra_stress_v45_to_h41" type="ped_wait_hazard" begin="2400.00" end="3600.00" perHour="29.90">
        <personTrip from="v45" to="h41"/>
    </personFlow>
    <!-- expected total over 3600s: 8448 vehicles + 844 pedestrians -->
</routes>
