<?xml version="1.0" encoding="UTF-8"?>

<!-- generated by generate_routes_4x4.py -->
<routes>
    <vType id="ped_wait_hazard" vClass="pedestrian" impatience="0.0" jmIgnoreFoeProb="0.0" jmDriveAfterRedTime="-1"/>
    <!-- demand=high: arterial weight 1.5, local weight 0.5, total 12000 veh/h + 2880 ped/h -->
    <flow id="f_-h11_to_v41" begin="0.00" end="3600.00" perHour="375.00" from="-h11" to="v41" departLane="best" departSpeed="max"/>
    <flow id="f_-h21_to_h31" begin="0.00" end="3600.00" perHour="1125.00" from="-h21" to="h31" departLane="best" departSpeed="max"/>
    <flow id="f_-h31_to_h11" begin="0.00" end="3600.00" perHour="1125.00" from="-h31" to="h11" departLane="best" departSpeed="max"/>
    <flow id="f_-h41_to_-v15" begin="0.00" end="3600.00" perHour="375.00" from="-h41" to="-v15" departLane="best" departSpeed="max"/>
    <flow id="f_h15_to_-h25" begin="0.00" end="3600.00" perHour="375.00" from="h15" to="-h25" departLane="best" departSpeed="max"/>
    <flow id="f_h25_to_h41" begin="0.00" end="3600.00" perHour="1125.00" from="h25" to="h41" departLane="best" departSpeed="max"/>
    <flow id="f_h35_to_h41" begin="0.00" end="3600.00" perHour="1125.00" from="h35" to="h41" departLane="best" departSpeed="max"/>
    <flow id="f_h45_to_h31" begin="0.00" end="3600.00" perHour="375.00" from="h45" to="h31" departLane="best" departSpeed="max"/>
    <flow id="f_-v11_to_-v15" begin="0.00" end="3600.00" perHour="375.00" from="-v11" to="-v15" departLane="best" departSpeed="max"/>
    <flow id="f_-v21_to_h21" begin="0.00" end="3600.00" perHour="1125.00" from="-v21" to="h21" departLane="best" departSpeed="max"/>
    <flow id="f_-v31_to_v41" begin="0.00" end="3600.00" perHour="1125.00" from="-v31" to="v41" departLane="best" departSpeed="max"/>
    <flow id="f_-v41_to_-v15" begin="0.00" end="3600.00" perHour="375.00" from="-v41" to="-v15" departLane="best" departSpeed="max"/>
    <flow id="f_v15_to_-v45" begin="0.00" end="3600.00" perHour="375.00" from="v15" to="-v45" departLane="best" departSpeed="max"/>
    <flow id="f_v25_to_v11" begin="0.00" end="3600.00" perHour="1125.00" from="v25" to="v11" departLane="best" departSpeed="max"/>
    <flow id="f_v35_to_h21" begin="0.00" end="3600.00" perHour="1125.00" from="v35" to="h21" departLane="best" departSpeed="max"/>
    <flow id="f_v45_to_v21" begin="0.00" end="3600.00" perHour="375.00" from="v45" to="v21" departLane="best" departSpeed="max"/>
    <personFlow id="pf_-h11_to_-h45" type="ped_wait_hazard" begin="0.00" end="3600.00" perHour="90.00">
        <personTrip from="-h11" to="-h45"/>
    </personFlow>
    <personFlow id="pf_-h21_to_h11" type="ped_wait_hazard" begin="0.00" end="3600.00" perHour="270.00">
        <personTrip from="-h21" to="h11"/>
    </personFlow>
    <personFlow id="pf_-h31_to_h11" type="ped_wait_hazard" begin="0.00" end="3600.00" perHour="270.00">
        <personTrip from="-h31" to="h11"/>
    </personFlow>
    <personFlow id="pf_-h41_to_h21" type="ped_wait_hazard" begin="0.00" end="3600.00" perHour="90.00">
        <personTrip from="-h41" to="h21"/>
    </personFlow>
    <personFlow id="pf_h15_to_h41" type="ped_wait_hazard" begin="0.00" end="3600.00" perHour="90.00">
        <personTrip from="h15" to="h41"/>
    </personFlow>
    <personFlow id="pf_h25_to_h41" type="ped_wait_hazard" begin="0.00" end="3600.00" perHour="270.00">
        <personTrip from="h25" to="h41"/>
    </personFlow>
    <personFlow id="pf_h35_to_v21" type="ped_wait_hazard" begin="0.00" end="3600.00" perHour="270.00">
        <personTrip from="h35" to="v21"/>
    </personFlow>
    <personFlow id="pf_h45_to_v31" type="ped_wait_hazard" begin="0.00" end="3600.00" perHour="90.00">
        <personTrip from="h45" to="v31"/>
    </personFlow>
    <personFlow id="pf_-v11_to_h11" type="ped_wait_hazard" begin="0.00" end="3600.00" perHour="90.00">
        <personTrip from="-v11" to="h11"/>
    </personFlow>
    <personFlow id="pf_-v21_to_v11" type="ped_wait_hazard" begin="0.00" end="3600.00" perHour="270.00">
        <personTrip from="-v21" to="v11"/>
    </personFlow>
    <personFlow id="pf_-v31_to_h41" type="ped_wait_hazard" begin="0.00" end="3600.00" perHour="270.00">
        <personTrip from="-v31" to="h41"/>
    </personFlow>
    <personFlow id="pf_-v41_to_-v15" type="ped_wait_hazard" begin="0.00" end="3600.00" perHour="90.00">
        <personTrip from="-v41" to="-v15"/>
    </personFlow>
    <personFlow id="pf_v15_to_v31" type="ped_wait_hazard" begin="0.00" end="3600.00" perHour="90.00">
        <personTrip from="v15" to="v31"/>
    </personFlow>
    <personFlow id="pf_v25_to_v41" type="ped_wait_hazard" begin="0.00" end="3600.00" perHour="270.00">
        <personTrip from="v25" to="v41"/>
    </personFlow>
    <personFlow id="pf_v35_to_v11" type="ped_wait_hazard" begin="0.00" end="3600.00" perHour="270.00">
        <personTrip from="v35" to="v11"/>
    </personFlow>
    <personFlow id="pf_v45_to_-h35" type="ped_wait_hazard" begin="0.00" end="3600.00" perHour="90.00">
        <personTrip from="v45" to="-h35"/>
    </personFlow>
</routes>
